@<TRIPOS>MOLECULE
*****
 16 15 0 0 0
SMALL
GASTEIGER

@<TRIPOS>ATOM
      1 C           1.0653    0.0532    0.0197 C.3     1  UNL1       -0.0649
      2 C           2.5849    0.0514    0.0282 C.3     1  UNL1       -0.0492
      3 C           3.1619    0.3326   -1.3566 C.3     1  UNL1        0.0053
      4 C           4.6810    0.3324   -1.3554 C.2     1  UNL1        0.1303
      5 O           5.3450    0.1261   -0.3392 O.2     1  UNL1       -0.2977
      6 C           5.3640    0.5993   -2.6699 C.3     1  UNL1       -0.0061
      7 H           0.6827   -0.1510    1.0249 H       1  UNL1        0.0230
      8 H           0.6749   -0.7158   -0.6543 H       1  UNL1        0.0230
      9 H           0.6749    1.0241   -0.3010 H       1  UNL1        0.0230
     10 H           2.9419   -0.9202    0.3901 H       1  UNL1        0.0267
     11 H           2.9419    0.8049    0.7404 H       1  UNL1        0.0267
     12 H           2.8246    1.3130   -1.7112 H       1  UNL1        0.0341
     13 H           2.8246   -0.4317   -2.0655 H       1  UNL1        0.0341
     14 H           4.6279    0.7600   -3.4613 H       1  UNL1        0.0306
     15 H           5.9824   -0.2619   -2.9349 H       1  UNL1        0.0306
     16 H           5.9824    1.4958   -2.5780 H       1  UNL1        0.0306
@<TRIPOS>BOND
     1     1     2    1
     2     2     3    1
     3     3     4    1
     4     4     5    2
     5     4     6    1
     6     1     7    1
     7     1     8    1
     8     1     9    1
     9     2    10    1
    10     2    11    1
    11     3    12    1
    12     3    13    1
    13     6    14    1
    14     6    15    1
    15     6    16    1
