@<TRIPOS>MOLECULE
*****
 27 27 0 0 0
SMALL
GASTEIGER

@<TRIPOS>ATOM
      1 C           2.8664   -0.8052    2.6367 C.3     1  UNL1       -0.0634
      2 C           2.4362   -0.4900    1.2133 C.3     1  UNL1       -0.0349
      3 C           3.1612   -1.3326    0.1416 C.3     1  UNL1        0.0392
      4 C           2.6429   -0.9607   -1.2537 C.3     1  UNL1       -0.0440
      5 N           4.6399   -1.2789    0.2046 N.ar    1  UNL1       -0.2573
      6 C           5.3193   -2.4840    0.2827 C.ar    1  UNL1        0.3298
      7 O           4.7928   -3.5908    0.3556 O.2     1  UNL1       -0.2465
      8 N           6.6841   -2.4127    0.2715 N.ar    1  UNL1       -0.3105
      9 C           7.4208   -1.2605    0.2021 C.ar    1  UNL1        0.0365
     10 C           8.9172   -1.4283    0.2012 C.3     1  UNL1       -0.0231
     11 C           6.7945   -0.0736    0.1375 C.ar    1  UNL1        0.1013
     12 BR          7.6879    1.5705    0.0687 Br      1  UNL1       -0.0429
     13 C           5.2935   -0.0538    0.1134 C.ar    1  UNL1        0.2711
     14 O           4.7002    1.0218    0.0108 O.2     1  UNL1       -0.2663
     15 H           2.3042   -0.1807    3.3388 H       1  UNL1        0.0230
     16 H           3.9305   -0.6034    2.7913 H       1  UNL1        0.0230
     17 H           2.6701   -1.8529    2.8848 H       1  UNL1        0.0230
     18 H           2.5635    0.5808    1.0288 H       1  UNL1        0.0282
     19 H           1.3578   -0.6807    1.1334 H       1  UNL1        0.0282
     20 H           2.8473   -2.3712    0.3110 H       1  UNL1        0.0527
     21 H           2.8817    0.0742   -1.5199 H       1  UNL1        0.0250
     22 H           1.5533   -1.0686   -1.3013 H       1  UNL1        0.0250
     23 H           3.0781   -1.6106   -2.0199 H       1  UNL1        0.0250
     24 H           7.1480   -3.3143    0.3287 H       1  UNL1        0.1701
     25 H           9.2074   -2.4847    0.1896 H       1  UNL1        0.0292
     26 H           9.3593   -0.9795    1.0966 H       1  UNL1        0.0292
     27 H           9.3604   -0.9683   -0.6883 H       1  UNL1        0.0292
@<TRIPOS>BOND
     1     1     2    1
     2     2     3    1
     3     3     4    1
     4     3     5    1
     5     5     6   ar
     6     6     7    2
     7     6     8   ar
     8     8     9   ar
     9     9    10    1
    10     9    11   ar
    11    11    12    1
    12    11    13   ar
    13     5    13   ar
    14    13    14    2
    15     1    15    1
    16     1    16    1
    17     1    17    1
    18     2    18    1
    19     2    19    1
    20     3    20    1
    21     4    21    1
    22     4    22    1
    23     4    23    1
    24     8    24    1
    25    10    25    1
    26    10    26    1
    27    10    27    1
