@<TRIPOS>MOLECULE
*****
 31 32 0 0 0
SMALL
GASTEIGER

@<TRIPOS>ATOM
      1 O           2.7228    0.6214    0.8399 O.2     1  UNL1       -0.2738
      2 C           2.2041   -0.0706   -0.0323 C.2     1  UNL1        0.2332
      3 C           0.6997   -0.1648   -0.1810 C.3     1  UNL1        0.1024
      4 N           0.1786    0.8990   -1.0213 N.ar    1  UNL1       -0.3028
      5 C          -0.2588    2.1092   -0.5304 C.ar    1  UNL1        0.0267
      6 C          -0.6669    2.8306   -1.6266 C.ar    1  UNL1        0.0477
      7 N          -0.5124    2.0975   -2.7715 N.ar    1  UNL1       -0.2152
      8 C          -0.0043    0.9428   -2.3809 C.ar    1  UNL1        0.2912
      9 N           0.3173   -0.1118   -3.3111 N.pl3   1  UNL1        0.0932
     10 O           0.8411   -1.1393   -2.8530 O.2     1  UNL1       -0.1231
     11 O           0.0620    0.0793   -4.5049 O.2     1  UNL1       -0.1231
     12 N           2.9241   -0.7911   -0.9550 N.am    1  UNL1       -0.3097
     13 C           4.3693   -0.8005   -0.9866 C.3     1  UNL1        0.0369
     14 C           4.8991   -2.2038   -0.8622 C.ar    1  UNL1       -0.0303
     15 C           5.0661   -3.0121   -1.9959 C.ar    1  UNL1       -0.0571
     16 C           5.5558   -4.3146   -1.8717 C.ar    1  UNL1       -0.0615
     17 C           5.8751   -4.8237   -0.6144 C.ar    1  UNL1       -0.0617
     18 C           5.7009   -4.0348    0.5207 C.ar    1  UNL1       -0.0615
     19 C           5.2102   -2.7331    0.3990 C.ar    1  UNL1       -0.0571
     20 H           0.2466   -0.0617    0.8130 H       1  UNL1        0.0589
     21 H           0.3780   -1.1374   -0.5575 H       1  UNL1        0.0589
     22 H          -0.2285    2.3540    0.5243 H       1  UNL1        0.0825
     23 H          -1.0619    3.8394   -1.6508 H       1  UNL1        0.0845
     24 H           2.4395   -1.3250   -1.6727 H       1  UNL1        0.1491
     25 H           4.7879   -0.1620   -0.1998 H       1  UNL1        0.0512
     26 H           4.6776   -0.3662   -1.9449 H       1  UNL1        0.0512
     27 H           4.8225   -2.6315   -2.9853 H       1  UNL1        0.0621
     28 H           5.6902   -4.9316   -2.7568 H       1  UNL1        0.0618
     29 H           6.2595   -5.8362   -0.5192 H       1  UNL1        0.0618
     30 H           5.9491   -4.4318    1.5018 H       1  UNL1        0.0618
     31 H           5.0766   -2.1284    1.2938 H       1  UNL1        0.0621
@<TRIPOS>BOND
     1     1     2    2
     2     2     3    1
     3     3     4    1
     4     4     5   ar
     5     5     6   ar
     6     6     7   ar
     7     7     8   ar
     8     4     8   ar
     9     8     9    1
    10     9    10    2
    11     9    11    2
    12     2    12   am
    13    12    13    1
    14    13    14    1
    15    14    15   ar
    16    15    16   ar
    17    16    17   ar
    18    17    18   ar
    19    18    19   ar
    20    14    19   ar
    21     3    20    1
    22     3    21    1
    23     5    22    1
    24     6    23    1
    25    12    24    1
    26    13    25    1
    27    13    26    1
    28    15    27    1
    29    16    28    1
    30    17    29    1
    31    18    30    1
    32    19    31    1
