@<TRIPOS>MOLECULE
*****
 22 23 0 0 0
SMALL
GASTEIGER

@<TRIPOS>ATOM
      1 CL         -2.7392    0.8070    0.0429 Cl      1  UNL1       -0.0835
      2 C          -1.2375   -0.0326    0.0482 C.ar    1  UNL1        0.0424
      3 C          -1.1973   -1.3765    0.3889 C.ar    1  UNL1       -0.0427
      4 C           0.0309   -2.0494    0.4233 C.ar    1  UNL1       -0.0512
      5 C           1.2361   -1.4216    0.0407 C.ar    1  UNL1        0.0034
      6 C           1.1450   -0.0686   -0.3631 C.ar    1  UNL1        0.0501
      7 CL          2.4919    0.8018   -1.0258 Cl      1  UNL1       -0.0829
      8 C          -0.0721    0.6288   -0.3147 C.ar    1  UNL1       -0.0244
      9 C           2.5158   -2.2011    0.0642 C.ar    1  UNL1        0.0215
     10 C           2.6570   -3.4129   -0.6575 C.ar    1  UNL1        0.0502
     11 CL          1.3802   -4.1076   -1.6084 Cl      1  UNL1       -0.0829
     12 C           3.8550   -4.1429   -0.6489 C.ar    1  UNL1       -0.0413
     13 C           4.9736   -3.6422    0.0007 C.ar    1  UNL1       -0.0406
     14 C           4.8826   -2.4525    0.7188 C.ar    1  UNL1        0.0599
     15 CL          6.3391   -1.8739    1.4501 Cl      1  UNL1       -0.0820
     16 C           3.6528   -1.7666    0.8024 C.ar    1  UNL1        0.0684
     17 CL          3.5298   -0.4373    1.9262 Cl      1  UNL1       -0.0814
     18 H          -2.1127   -1.9136    0.6247 H       1  UNL1        0.0632
     19 H           0.0242   -3.0958    0.7245 H       1  UNL1        0.0624
     20 H          -0.1082    1.6844   -0.5788 H       1  UNL1        0.0647
     21 H           3.9236   -5.0962   -1.1712 H       1  UNL1        0.0633
     22 H           5.9113   -4.1965   -0.0392 H       1  UNL1        0.0633
@<TRIPOS>BOND
     1     1     2    1
     2     2     3   ar
     3     3     4   ar
     4     4     5   ar
     5     5     6   ar
     6     6     7    1
     7     6     8   ar
     8     2     8   ar
     9     5     9    1
    10     9    10   ar
    11    10    11    1
    12    10    12   ar
    13    12    13   ar
    14    13    14   ar
    15    14    15    1
    16    14    16   ar
    17     9    16   ar
    18    16    17    1
    19     3    18    1
    20     4    19    1
    21     8    20    1
    22    12    21    1
    23    13    22    1
