@<TRIPOS>MOLECULE
*****
 22 23 0 0 0
SMALL
GASTEIGER

@<TRIPOS>ATOM
      1 CL          1.2687    1.7346   -0.6510 Cl      1  UNL1       -0.0820
      2 C          -0.1356    0.7695   -0.3236 C.ar    1  UNL1        0.0598
      3 C          -1.2934    1.4492    0.0494 C.ar    1  UNL1       -0.0419
      4 C          -2.4304    0.7328    0.3928 C.ar    1  UNL1       -0.0597
      5 C          -2.3924   -0.6633    0.4317 C.ar    1  UNL1       -0.0525
      6 C          -1.2502   -1.3920    0.0290 C.ar    1  UNL1        0.0047
      7 C          -0.1313   -0.6374   -0.4163 C.ar    1  UNL1        0.0670
      8 CL          1.2536   -1.4355   -1.1092 Cl      1  UNL1       -0.0814
      9 C          -1.2795   -2.8929    0.0827 C.ar    1  UNL1        0.0230
     10 C          -2.2780   -3.6505   -0.5943 C.ar    1  UNL1        0.0685
     11 CL         -3.4956   -2.8640   -1.5661 Cl      1  UNL1       -0.0814
     12 C          -2.2999   -5.0585   -0.5165 C.ar    1  UNL1        0.0613
     13 CL         -3.5766   -6.0174   -1.1869 Cl      1  UNL1       -0.0820
     14 C          -1.2798   -5.7453    0.1320 C.ar    1  UNL1       -0.0222
     15 C          -0.2802   -5.0368    0.7866 C.ar    1  UNL1        0.0613
     16 CL          0.9847   -5.9658    1.5189 Cl      1  UNL1       -0.0820
     17 C          -0.3173   -3.6289    0.8329 C.ar    1  UNL1        0.0685
     18 CL          0.7728   -2.8101    1.9237 Cl      1  UNL1       -0.0814
     19 H          -1.3138    2.5360    0.0725 H       1  UNL1        0.0633
     20 H          -3.3501    1.2584    0.6396 H       1  UNL1        0.0618
     21 H          -3.2951   -1.1822    0.7485 H       1  UNL1        0.0624
     22 H          -1.2725   -6.8359    0.1411 H       1  UNL1        0.0648
@<TRIPOS>BOND
     1     1     2    1
     2     2     3   ar
     3     3     4   ar
     4     4     5   ar
     5     5     6   ar
     6     6     7   ar
     7     2     7   ar
     8     7     8    1
     9     6     9    1
    10     9    10   ar
    11    10    11    1
    12    10    12   ar
    13    12    13    1
    14    12    14   ar
    15    14    15   ar
    16    15    16    1
    17    15    17   ar
    18     9    17   ar
    19    17    18    1
    20     3    19    1
    21     4    20    1
    22     5    21    1
    23    14    22    1
