@<TRIPOS>MOLECULE
*****
 30 33 0 0 0
SMALL
GASTEIGER

@<TRIPOS>ATOM
      1 C           4.6628   -0.0182    0.2060 C.ar    1  UNL1       -0.0612
      2 C           4.1451    1.2609    0.3322 C.ar    1  UNL1       -0.0611
      3 C           2.7671    1.4688    0.2118 C.ar    1  UNL1       -0.0534
      4 C           1.8544    0.4039   -0.0063 C.ar    1  UNL1       -0.0102
      5 C           2.4102   -0.8938   -0.0881 C.ar    1  UNL1       -0.0173
      6 C           3.7997   -1.0885   -0.0114 C.ar    1  UNL1       -0.0540
      7 C           1.5691   -1.9942   -0.2260 C.ar    1  UNL1       -0.0534
      8 C           0.1843   -1.8346   -0.1977 C.ar    1  UNL1       -0.0529
      9 C          -0.4295   -0.5684   -0.1029 C.ar    1  UNL1       -0.0096
     10 C          -1.8597   -0.4048   -0.0055 C.ar    1  UNL1       -0.0102
     11 C          -2.7726   -1.4657    0.2105 C.ar    1  UNL1       -0.0534
     12 C          -4.1497   -1.2543    0.3345 C.ar    1  UNL1       -0.0611
     13 C          -4.6654    0.0259    0.2163 C.ar    1  UNL1       -0.0612
     14 C          -3.8008    1.0962   -0.0009 C.ar    1  UNL1       -0.0540
     15 C          -2.4115    0.8979   -0.0836 C.ar    1  UNL1       -0.0173
     16 C          -1.5712    1.9966   -0.2274 C.ar    1  UNL1       -0.0534
     17 C          -0.1863    1.8349   -0.2035 C.ar    1  UNL1       -0.0529
     18 C           0.4256    0.5690   -0.1044 C.ar    1  UNL1       -0.0096
     19 H           5.7321   -0.1878    0.2942 H       1  UNL1        0.0618
     20 H           4.8047    2.1005    0.5349 H       1  UNL1        0.0618
     21 H           2.4124    2.4874    0.3423 H       1  UNL1        0.0624
     22 H           4.2219   -2.0882   -0.0960 H       1  UNL1        0.0624
     23 H           1.9773   -2.9979   -0.3179 H       1  UNL1        0.0624
     24 H          -0.4130   -2.7391   -0.2785 H       1  UNL1        0.0624
     25 H          -2.4202   -2.4855    0.3347 H       1  UNL1        0.0624
     26 H          -4.8109   -2.0935    0.5340 H       1  UNL1        0.0618
     27 H          -5.7342    0.1984    0.3087 H       1  UNL1        0.0618
     28 H          -4.2201    2.0965   -0.0807 H       1  UNL1        0.0624
     29 H          -1.9772    3.0003   -0.3219 H       1  UNL1        0.0624
     30 H           0.4120    2.7381   -0.2910 H       1  UNL1        0.0624
@<TRIPOS>BOND
     1     1     2   ar
     2     2     3   ar
     3     3     4   ar
     4     4     5   ar
     5     5     6   ar
     6     1     6   ar
     7     5     7   ar
     8     7     8   ar
     9     8     9   ar
    10     9    10   ar
    11    10    11   ar
    12    11    12   ar
    13    12    13   ar
    14    13    14   ar
    15    14    15   ar
    16    10    15   ar
    17    15    16   ar
    18    16    17   ar
    19    17    18   ar
    20     4    18   ar
    21     9    18   ar
    22     1    19    1
    23     2    20    1
    24     3    21    1
    25     6    22    1
    26     7    23    1
    27     8    24    1
    28    11    25    1
    29    12    26    1
    30    13    27    1
    31    14    28    1
    32    16    29    1
    33    17    30    1
