@<TRIPOS>MOLECULE
*****
 22 23 0 0 0
SMALL
GASTEIGER

@<TRIPOS>ATOM
      1 C           0.2979    1.1798   -0.0057 C.ar    1  UNL1       -0.0357
      2 C          -0.3960   -0.0334   -0.0208 C.ar    1  UNL1        0.0416
      3 CL         -2.1177   -0.0306   -0.0135 Cl      1  UNL1       -0.0835
      4 C           0.2902   -1.2425   -0.0358 C.ar    1  UNL1       -0.0434
      5 C           1.6816   -1.2377   -0.0485 C.ar    1  UNL1       -0.0598
      6 C           2.3775   -0.0233   -0.0469 C.ar    1  UNL1       -0.0539
      7 C           1.7054    1.2142   -0.0171 C.ar    1  UNL1       -0.0165
      8 C           2.4452    2.4997    0.0212 C.ar    1  UNL1       -0.0178
      9 C           1.9571    3.6512   -0.6242 C.ar    1  UNL1       -0.0540
     10 C           2.6368    4.8727   -0.5561 C.ar    1  UNL1       -0.0612
     11 C           3.8325    4.9675    0.1475 C.ar    1  UNL1       -0.0617
     12 C           4.3480    3.8425    0.7814 C.ar    1  UNL1       -0.0612
     13 C           3.6596    2.6257    0.7216 C.ar    1  UNL1       -0.0540
     14 H          -0.2724    2.1045    0.0319 H       1  UNL1        0.0638
     15 H          -0.2496   -2.1854   -0.0374 H       1  UNL1        0.0632
     16 H           2.2290   -2.1767   -0.0604 H       1  UNL1        0.0618
     17 H           3.4650   -0.0584   -0.0764 H       1  UNL1        0.0624
     18 H           1.0342    3.6138   -1.1991 H       1  UNL1        0.0624
     19 H           2.2281    5.7482   -1.0537 H       1  UNL1        0.0618
     20 H           4.3605    5.9159    0.2033 H       1  UNL1        0.0618
     21 H           5.2825    3.9085    1.3326 H       1  UNL1        0.0618
     22 H           4.0818    1.7756    1.2522 H       1  UNL1        0.0624
@<TRIPOS>BOND
     1     1     2   ar
     2     2     3    1
     3     2     4   ar
     4     4     5   ar
     5     5     6   ar
     6     6     7   ar
     7     1     7   ar
     8     7     8    1
     9     8     9   ar
    10     9    10   ar
    11    10    11   ar
    12    11    12   ar
    13    12    13   ar
    14     8    13   ar
    15     1    14    1
    16     4    15    1
    17     5    16    1
    18     6    17    1
    19     9    18    1
    20    10    19    1
    21    11    20    1
    22    12    21    1
    23    13    22    1
