@<TRIPOS>MOLECULE
*****
 18 17 0 0 0
SMALL
GASTEIGER

@<TRIPOS>ATOM
      1 C           0.8937    0.0163   -0.0870 C.3     1  UNL1       -0.0650
      2 C           2.4127   -0.0662   -0.0324 C.3     1  UNL1       -0.0512
      3 C           2.9549   -0.7942    1.2116 C.3     1  UNL1       -0.0209
      4 C           2.4759   -2.2485    1.2878 C.3     1  UNL1       -0.0603
      5 C           4.4903   -0.7274    1.2164 C.3     1  UNL1        0.0468
      6 O           5.0331   -1.3613    2.3667 O.3     1  UNL1       -0.3947
      7 H           0.5817    0.6056   -0.9554 H       1  UNL1        0.0230
      8 H           0.4939    0.4977    0.8108 H       1  UNL1        0.0230
      9 H           0.4384   -0.9731   -0.1843 H       1  UNL1        0.0230
     10 H           2.8103    0.9565   -0.0503 H       1  UNL1        0.0266
     11 H           2.7750   -0.5599   -0.9424 H       1  UNL1        0.0266
     12 H           2.5875   -0.2845    2.1119 H       1  UNL1        0.0320
     13 H           2.7825   -2.8108    0.3994 H       1  UNL1        0.0233
     14 H           1.3867   -2.3055    1.3679 H       1  UNL1        0.0233
     15 H           2.8848   -2.7547    2.1681 H       1  UNL1        0.0233
     16 H           4.8338    0.3125    1.2119 H       1  UNL1        0.0560
     17 H           4.9071   -1.2218    0.3323 H       1  UNL1        0.0560
     18 H           4.6353   -0.9406    3.1484 H       1  UNL1        0.2094
@<TRIPOS>BOND
     1     1     2    1
     2     2     3    1
     3     3     4    1
     4     3     5    1
     5     5     6    1
     6     1     7    1
     7     1     8    1
     8     1     9    1
     9     2    10    1
    10     2    11    1
    11     3    12    1
    12     4    13    1
    13     4    14    1
    14     4    15    1
    15     5    16    1
    16     5    17    1
    17     6    18    1
