@<TRIPOS>MOLECULE
*****
 19 19 0 0 0
SMALL
GASTEIGER

@<TRIPOS>ATOM
      1 C           1.0905   -0.0463   -0.2768 C.3     1  UNL1        0.0125
      2 C           2.5533   -0.2819   -0.0029 C.2     1  UNL1        0.2141
      3 O           2.9271   -0.7019    1.0862 O.2     1  UNL1       -0.2758
      4 N           3.3496    0.0132   -1.0971 N.am    1  UNL1       -0.2857
      5 C           4.7512   -0.1218   -1.1805 C.ar    1  UNL1        0.0334
      6 C           5.5185   -0.8097   -0.2372 C.ar    1  UNL1       -0.0394
      7 C           6.9110   -0.8702   -0.3587 C.ar    1  UNL1       -0.0460
      8 C           7.5409   -0.2413   -1.4275 C.ar    1  UNL1        0.0180
      9 BR          9.4251   -0.2840   -1.5648 Br      1  UNL1       -0.0503
     10 C           6.7889    0.4250   -2.3914 C.ar    1  UNL1       -0.0460
     11 C           5.3958    0.4748   -2.2723 C.ar    1  UNL1       -0.0394
     12 H           0.5485   -0.0018    0.6731 H       1  UNL1        0.0323
     13 H           0.6946   -0.8706   -0.8764 H       1  UNL1        0.0323
     14 H           0.9421    0.9011   -0.7992 H       1  UNL1        0.0323
     15 H           2.8951    0.4575   -1.8848 H       1  UNL1        0.1548
     16 H           5.0617   -1.3205    0.6051 H       1  UNL1        0.0636
     17 H           7.4859   -1.4058    0.3921 H       1  UNL1        0.0629
     18 H           7.2754    0.9163   -3.2305 H       1  UNL1        0.0629
     19 H           4.8302    1.0094   -3.0307 H       1  UNL1        0.0636
@<TRIPOS>BOND
     1     1     2    1
     2     2     3    2
     3     2     4   am
     4     4     5    1
     5     5     6   ar
     6     6     7   ar
     7     7     8   ar
     8     8     9    1
     9     8    10   ar
    10    10    11   ar
    11     5    11   ar
    12     1    12    1
    13     1    13    1
    14     1    14    1
    15     4    15    1
    16     6    16    1
    17     7    17    1
    18    10    18    1
    19    11    19    1
