@<TRIPOS>MOLECULE
*****
 14 15 0 0 0
SMALL
GASTEIGER

@<TRIPOS>ATOM
      1 C           2.5836   -0.4145    0.0015 C.ar    1  UNL1       -0.0597
      2 C           2.3476    0.9568   -0.0049 C.ar    1  UNL1       -0.0606
      3 C           1.0425    1.4596   -0.0070 C.ar    1  UNL1       -0.0459
      4 C          -0.0234    0.5441   -0.0060 C.ar    1  UNL1        0.0389
      5 S          -1.7200    0.8493   -0.0109 S.2     1  UNL1       -0.0754
      6 C          -2.0133   -0.8370   -0.0147 C.ar    1  UNL1        0.0659
      7 N          -0.9567   -1.6165   -0.0058 N.ar    1  UNL1       -0.2474
      8 C           0.1897   -0.8373   -0.0017 C.ar    1  UNL1        0.0782
      9 C           1.5152   -1.3175    0.0043 C.ar    1  UNL1       -0.0352
     10 H           3.6041   -0.7901    0.0038 H       1  UNL1        0.0618
     11 H           3.1875    1.6480   -0.0084 H       1  UNL1        0.0618
     12 H           0.8595    2.5297   -0.0111 H       1  UNL1        0.0629
     13 H          -3.0201   -1.2336   -0.0238 H       1  UNL1        0.0907
     14 H           1.6946   -2.3880    0.0090 H       1  UNL1        0.0639
@<TRIPOS>BOND
     1     1     2   ar
     2     2     3   ar
     3     3     4   ar
     4     4     5   ar
     5     5     6   ar
     6     6     7   ar
     7     7     8   ar
     8     4     8   ar
     9     8     9   ar
    10     1     9   ar
    11     1    10    1
    12     2    11    1
    13     3    12    1
    14     6    13    1
    15     9    14    1
