@<TRIPOS>MOLECULE
*****
 27 31 0 0 0
SMALL
GASTEIGER

@<TRIPOS>ATOM
      1 CL          1.4159   -0.6635   -0.0575 Cl      1  UNL1       -0.0851
      2 C           2.9321    0.0946   -0.0836 C.2     1  UNL1        0.0585
      3 C           3.3649    1.0438   -0.9349 C.2     1  UNL1        0.0585
      4 CL          2.4908    1.7885   -2.1801 Cl      1  UNL1       -0.0851
      5 C           4.7487    1.4654   -0.4896 C.3     1  UNL1        0.1194
      6 CL          5.2713    3.0775   -0.9431 Cl      1  UNL1       -0.1086
      7 C           5.8177    0.3717   -0.7035 C.3     1  UNL1       -0.0036
      8 C           6.8455   -0.2862   -1.6552 C.3     1  UNL1       -0.0067
      9 C           6.4051   -1.7727   -1.7783 C.3     1  UNL1       -0.0418
     10 C           6.2045   -1.9583   -0.2124 C.3     1  UNL1       -0.0067
     11 C           7.6276   -1.6525    0.2176 C.3     1  UNL1        0.0886
     12 O           8.0300   -0.3686    0.6391 O.3     1  UNL1       -0.3677
     13 C           8.1036   -0.5839   -0.7739 C.3     1  UNL1        0.0886
     14 C           5.1279   -0.8721   -0.0993 C.3     1  UNL1       -0.0036
     15 C           4.0921   -0.2457    0.8785 C.3     1  UNL1        0.1194
     16 CL          3.7086   -1.2268    2.2650 Cl      1  UNL1       -0.1086
     17 C           4.5253    1.2401    1.0999 C.3     1  UNL1        0.1663
     18 CL          5.9339    1.4177    2.2083 Cl      1  UNL1       -0.0964
     19 CL          3.2568    2.3135    1.8467 Cl      1  UNL1       -0.0964
     20 H           6.5402    0.8559   -0.0565 H       1  UNL1        0.0329
     21 H           7.0654    0.2312   -2.5879 H       1  UNL1        0.0330
     22 H           7.2006   -2.4282   -2.1669 H       1  UNL1        0.0272
     23 H           5.5084   -1.9229   -2.3854 H       1  UNL1        0.0272
     24 H           5.8704   -2.9641    0.0533 H       1  UNL1        0.0330
     25 H           8.2585   -2.5095    0.4049 H       1  UNL1        0.0625
     26 H           9.0474   -0.7140   -1.2804 H       1  UNL1        0.0625
     27 H           4.4293   -1.3142   -0.8353 H       1  UNL1        0.0329
@<TRIPOS>BOND
     1     1     2    1
     2     2     3    2
     3     3     4    1
     4     3     5    1
     5     5     6    1
     6     5     7    1
     7     7     8    1
     8     8     9    1
     9     9    10    1
    10    10    11    1
    11    11    12    1
    12    12    13    1
    13     8    13    1
    14    11    13    1
    15    10    14    1
    16     7    14    1
    17    14    15    1
    18     2    15    1
    19    15    16    1
    20    15    17    1
    21     5    17    1
    22    17    18    1
    23    17    19    1
    24     7    20    1
    25     8    21    1
    26     9    22    1
    27     9    23    1
    28    10    24    1
    29    11    25    1
    30    13    26    1
    31    14    27    1
