@<TRIPOS>MOLECULE
*****
 59 61 0 0 0
SMALL
GASTEIGER

@<TRIPOS>ATOM
      1 O          -1.2511    1.4973    0.7531 O.3     1  UNL1       -0.3924
      2 C          -1.8038    2.4375    1.6708 C.3     1  UNL1        0.0730
      3 C          -0.8237    2.7922    2.8042 C.3     1  UNL1        0.1130
      4 O           0.3137    3.5391    2.3287 O.3     1  UNL1       -0.3405
      5 C           1.3114    2.7635    1.6631 C.3     1  UNL1        0.1880
      6 O           2.4257    3.5968    1.3127 O.3     1  UNL1       -0.3460
      7 C           2.1400    4.6325    0.3645 C.3     1  UNL1        0.0796
      8 C           3.4328    5.4555    0.0961 C.3     1  UNL1        0.1134
      9 O           3.2383    6.5661   -0.8022 O.3     1  UNL1       -0.3405
     10 C           3.2609    6.3431   -2.2117 C.3     1  UNL1        0.1899
     11 O           3.5935    7.5736   -2.8877 O.3     1  UNL1       -0.3262
     12 C           2.6118    8.6255   -2.8239 C.3     1  UNL1        0.1722
     13 C           2.4714    9.2025   -1.4670 C.1     1  UNL1        0.0992
     14 N           2.3350    9.6639   -0.4114 N.1     1  UNL1       -0.1935
     15 C           2.9946    9.7422   -3.8072 C.ar    1  UNL1       -0.0049
     16 C           1.9941   10.5824   -4.3353 C.ar    1  UNL1       -0.0551
     17 C           2.3265   11.6768   -5.1422 C.ar    1  UNL1       -0.0614
     18 C           3.6601   11.9508   -5.4339 C.ar    1  UNL1       -0.0617
     19 C           4.6646   11.1257   -4.9292 C.ar    1  UNL1       -0.0614
     20 C           4.3312   10.0305   -4.1218 C.ar    1  UNL1       -0.0551
     21 C           4.3613    5.3439   -2.6653 C.3     1  UNL1        0.1342
     22 O           5.6764    5.9535   -2.6154 O.3     1  UNL1       -0.3841
     23 C           4.4030    4.1158   -1.7600 C.3     1  UNL1        0.1141
     24 O           5.4292    3.2196   -2.1906 O.3     1  UNL1       -0.3864
     25 C           4.6496    4.6077   -0.3269 C.3     1  UNL1        0.1119
     26 O           4.9686    3.5417    0.5585 O.3     1  UNL1       -0.3865
     27 C           1.8376    1.6704    2.6267 C.3     1  UNL1        0.1341
     28 O           2.3893    2.2483    3.8357 O.3     1  UNL1       -0.3841
     29 C           0.6901    0.7575    3.0559 C.3     1  UNL1        0.1141
     30 O           1.1600   -0.2056    4.0137 O.3     1  UNL1       -0.3864
     31 C          -0.4340    1.5931    3.6890 C.3     1  UNL1        0.1119
     32 O          -1.5904    0.8052    3.9966 O.3     1  UNL1       -0.3865
     33 H          -1.9399    1.3297    0.0837 H       1  UNL1        0.2095
     34 H          -2.7254    2.0086    2.0785 H       1  UNL1        0.0584
     35 H          -2.0592    3.3394    1.1068 H       1  UNL1        0.0584
     36 H          -1.3733    3.4905    3.4482 H       1  UNL1        0.0647
     37 H           0.9302    2.3141    0.7429 H       1  UNL1        0.0937
     38 H           1.3637    5.2986    0.7581 H       1  UNL1        0.0587
     39 H           1.7507    4.1942   -0.5606 H       1  UNL1        0.0587
     40 H           3.6893    5.9037    1.0648 H       1  UNL1        0.0647
     41 H           2.2756    5.9857   -2.5357 H       1  UNL1        0.0938
     42 H           1.6537    8.2054   -3.1536 H       1  UNL1        0.0808
     43 H           0.9439   10.4154   -4.1008 H       1  UNL1        0.0621
     44 H           1.5461   12.3343   -5.5206 H       1  UNL1        0.0618
     45 H           3.9198   12.8151   -6.0419 H       1  UNL1        0.0618
     46 H           5.7047   11.3450   -5.1482 H       1  UNL1        0.0618
     47 H           5.1405    9.4212   -3.7182 H       1  UNL1        0.0621
     48 H           4.2144    5.0620   -3.7136 H       1  UNL1        0.0671
     49 H           5.5534    6.8568   -2.2630 H       1  UNL1        0.2101
     50 H           3.4667    3.5531   -1.8274 H       1  UNL1        0.0648
     51 H           6.2642    3.7248   -2.1410 H       1  UNL1        0.2100
     52 H           5.5355    5.2540   -0.3120 H       1  UNL1        0.0647
     53 H           4.2039    2.9420    0.6068 H       1  UNL1        0.2100
     54 H           2.6524    1.0957    2.1734 H       1  UNL1        0.0671
     55 H           2.1429    3.1950    3.8278 H       1  UNL1        0.2101
     56 H           0.3168    0.1762    2.2083 H       1  UNL1        0.0648
     57 H           1.7617    0.2878    4.6104 H       1  UNL1        0.2100
     58 H          -0.0726    1.9765    4.6523 H       1  UNL1        0.0647
     59 H          -1.4736   -0.0671    3.5771 H       1  UNL1        0.2100
@<TRIPOS>BOND
     1     1     2    1
     2     2     3    1
     3     3     4    1
     4     4     5    1
     5     5     6    1
     6     6     7    1
     7     7     8    1
     8     8     9    1
     9     9    10    1
    10    10    11    1
    11    11    12    1
    12    12    13    1
    13    13    14    3
    14    12    15    1
    15    15    16   ar
    16    16    17   ar
    17    17    18   ar
    18    18    19   ar
    19    19    20   ar
    20    15    20   ar
    21    10    21    1
    22    21    22    1
    23    21    23    1
    24    23    24    1
    25    23    25    1
    26     8    25    1
    27    25    26    1
    28     5    27    1
    29    27    28    1
    30    27    29    1
    31    29    30    1
    32    29    31    1
    33     3    31    1
    34    31    32    1
    35     1    33    1
    36     2    34    1
    37     2    35    1
    38     3    36    1
    39     5    37    1
    40     7    38    1
    41     7    39    1
    42     8    40    1
    43    10    41    1
    44    12    42    1
    45    16    43    1
    46    17    44    1
    47    18    45    1
    48    19    46    1
    49    20    47    1
    50    21    48    1
    51    22    49    1
    52    23    50    1
    53    24    51    1
    54    25    52    1
    55    26    53    1
    56    27    54    1
    57    28    55    1
    58    29    56    1
    59    30    57    1
    60    31    58    1
    61    32    59    1
