@<TRIPOS>MOLECULE
*****
 33 36 0 0 0
SMALL
GASTEIGER

@<TRIPOS>ATOM
      1 C           1.0493    0.0983    0.0553 C.3     1  UNL1       -0.0391
      2 C           2.5574    0.1443    0.0596 C.ar    1  UNL1       -0.0421
      3 C           3.2527   -1.0745    0.0615 C.ar    1  UNL1       -0.0499
      4 C           4.6590   -1.1690    0.0666 C.ar    1  UNL1       -0.0093
      5 C           5.3468   -2.4430    0.0691 C.ar    1  UNL1       -0.0102
      6 C           4.7045   -3.7112    0.0663 C.ar    1  UNL1       -0.0534
      7 C           5.4140   -4.9167    0.0694 C.ar    1  UNL1       -0.0611
      8 C           6.7987   -4.9019    0.0755 C.ar    1  UNL1       -0.0612
      9 C           7.4677   -3.6822    0.0783 C.ar    1  UNL1       -0.0540
     10 C           6.7609   -2.4665    0.0752 C.ar    1  UNL1       -0.0173
     11 C           7.4662   -1.2690    0.0782 C.ar    1  UNL1       -0.0534
     12 C           6.7951   -0.0469    0.0753 C.ar    1  UNL1       -0.0529
     13 C           5.3862    0.0524    0.0694 C.ar    1  UNL1       -0.0096
     14 C           4.6944    1.3228    0.0665 C.ar    1  UNL1       -0.0099
     15 C           5.3613    2.5790    0.0684 C.ar    1  UNL1       -0.0534
     16 C           4.6835    3.8003    0.0657 C.ar    1  UNL1       -0.0611
     17 C           3.3026    3.8140    0.0610 C.ar    1  UNL1       -0.0612
     18 C           2.6095    2.6067    0.0589 C.ar    1  UNL1       -0.0538
     19 C           3.2742    1.3565    0.0616 C.ar    1  UNL1       -0.0144
     20 H           0.6738   -0.9308    0.0562 H       1  UNL1        0.0278
     21 H           0.6557    0.5853   -0.8428 H       1  UNL1        0.0278
     22 H           0.6506    0.5883    0.9493 H       1  UNL1        0.0278
     23 H           2.6520   -1.9799    0.0593 H       1  UNL1        0.0627
     24 H           3.6215   -3.7891    0.0615 H       1  UNL1        0.0624
     25 H           4.8771   -5.8617    0.0672 H       1  UNL1        0.0618
     26 H           7.3579   -5.8331    0.0781 H       1  UNL1        0.0618
     27 H           8.5559   -3.6863    0.0831 H       1  UNL1        0.0624
     28 H           8.5542   -1.2649    0.0829 H       1  UNL1        0.0624
     29 H           7.4218    0.8397    0.0781 H       1  UNL1        0.0624
     30 H           6.4457    2.6364    0.0719 H       1  UNL1        0.0624
     31 H           5.2416    4.7325    0.0673 H       1  UNL1        0.0618
     32 H           2.7613    4.7558    0.0588 H       1  UNL1        0.0618
     33 H           1.5232    2.6584    0.0552 H       1  UNL1        0.0624
@<TRIPOS>BOND
     1     1     2    1
     2     2     3   ar
     3     3     4   ar
     4     4     5   ar
     5     5     6   ar
     6     6     7   ar
     7     7     8   ar
     8     8     9   ar
     9     9    10   ar
    10     5    10   ar
    11    10    11   ar
    12    11    12   ar
    13    12    13   ar
    14     4    13   ar
    15    13    14   ar
    16    14    15   ar
    17    15    16   ar
    18    16    17   ar
    19    17    18   ar
    20    18    19   ar
    21     2    19   ar
    22    14    19   ar
    23     1    20    1
    24     1    21    1
    25     1    22    1
    26     3    23    1
    27     6    24    1
    28     7    25    1
    29     8    26    1
    30     9    27    1
    31    11    28    1
    32    12    29    1
    33    15    30    1
    34    16    31    1
    35    17    32    1
    36    18    33    1
