@<TRIPOS>MOLECULE
*****
 23 24 0 0 0
SMALL
GASTEIGER

@<TRIPOS>ATOM
      1 C           2.4135    0.7436   -0.0241 C.ar    1  UNL1       -0.0582
      2 C           2.4211   -0.6509   -0.0606 C.ar    1  UNL1       -0.0484
      3 C           3.7083   -1.4181   -0.1224 C.3     1  UNL1       -0.0396
      4 C           1.1969   -1.3393   -0.0459 C.ar    1  UNL1       -0.0328
      5 C          -0.0248   -0.6772   -0.0137 C.ar    1  UNL1        0.0715
      6 N          -1.1674   -1.3892   -0.0103 N.ar    1  UNL1       -0.2519
      7 C          -2.3475   -0.7244    0.0072 C.ar    1  UNL1        0.0389
      8 C          -3.5990   -1.5498   -0.0035 C.3     1  UNL1       -0.0223
      9 C          -2.4281    0.6614    0.0109 C.ar    1  UNL1       -0.0401
     10 C          -1.2473    1.3945    0.0161 C.ar    1  UNL1       -0.0509
     11 C          -0.0156    0.7314    0.0059 C.ar    1  UNL1        0.0004
     12 C           1.2019    1.4328    0.0090 C.ar    1  UNL1       -0.0523
     13 H           3.3458    1.3036   -0.0272 H       1  UNL1        0.0620
     14 H           4.5736   -0.7478   -0.1550 H       1  UNL1        0.0278
     15 H           3.7329   -2.0380   -1.0247 H       1  UNL1        0.0278
     16 H           3.8105   -2.0590    0.7588 H       1  UNL1        0.0278
     17 H           1.1891   -2.4273   -0.0673 H       1  UNL1        0.0642
     18 H          -3.3676   -2.6107    0.1355 H       1  UNL1        0.0292
     19 H          -4.1179   -1.4329   -0.9599 H       1  UNL1        0.0292
     20 H          -4.2665   -1.2411    0.8076 H       1  UNL1        0.0292
     21 H          -3.3885    1.1653    0.0109 H       1  UNL1        0.0636
     22 H          -1.2933    2.4808    0.0230 H       1  UNL1        0.0625
     23 H           1.2120    2.5198    0.0315 H       1  UNL1        0.0624
@<TRIPOS>BOND
     1     1     2   ar
     2     2     3    1
     3     2     4   ar
     4     4     5   ar
     5     5     6   ar
     6     6     7   ar
     7     7     8    1
     8     7     9   ar
     9     9    10   ar
    10    10    11   ar
    11     5    11   ar
    12    11    12   ar
    13     1    12   ar
    14     1    13    1
    15     3    14    1
    16     3    15    1
    17     3    16    1
    18     4    17    1
    19     8    18    1
    20     8    19    1
    21     8    20    1
    22     9    21    1
    23    10    22    1
    24    12    23    1
