@<TRIPOS>MOLECULE
*****
 13 13 0 0 0
SMALL
GASTEIGER

@<TRIPOS>ATOM
      1 O           1.9265   -0.0259    0.1013 O.2     1  UNL1       -0.2758
      2 C           0.7094    0.0139    0.0662 C.2     1  UNL1        0.2131
      3 C          -0.1551    1.2396    0.2172 C.3     1  UNL1        0.0254
      4 C          -1.5166    0.7489   -0.2678 C.3     1  UNL1       -0.0291
      5 C          -1.5030   -0.7321    0.0564 C.3     1  UNL1        0.0120
      6 N          -0.1209   -1.0807   -0.0617 N.am    1  UNL1       -0.3153
      7 H           0.2193    2.0649   -0.3929 H       1  UNL1        0.0359
      8 H          -0.1838    1.5262    1.2722 H       1  UNL1        0.0359
      9 H          -1.5880    0.8896   -1.3534 H       1  UNL1        0.0285
     10 H          -2.3525    1.2801    0.1956 H       1  UNL1        0.0285
     11 H          -2.1002   -1.3267   -0.6387 H       1  UNL1        0.0462
     12 H          -1.8241   -0.9295    1.0846 H       1  UNL1        0.0462
     13 H           0.2602   -2.0183   -0.0703 H       1  UNL1        0.1487
@<TRIPOS>BOND
     1     1     2    2
     2     2     3    1
     3     3     4    1
     4     4     5    1
     5     5     6    1
     6     2     6   am
     7     3     7    1
     8     3     8    1
     9     4     9    1
    10     4    10    1
    11     5    11    1
    12     5    12    1
    13     6    13    1
