@<TRIPOS>MOLECULE
*****
 35 35 0 0 0
SMALL
GASTEIGER

@<TRIPOS>ATOM
      1 C           4.0554    0.5339    1.2761 C.3     1  UNL1       -0.0494
      2 C           2.8399    0.3447    0.3795 C.3     1  UNL1        0.0095
      3 N           2.8101    1.3650   -0.7047 N.pl3   1  UNL1       -0.3268
      4 C           2.0603    2.5608   -0.2208 C.3     1  UNL1        0.0095
      5 C           0.5706    2.4581   -0.5208 C.3     1  UNL1       -0.0494
      6 C           3.6772    1.3303   -1.8201 C.ar    1  UNL1        0.0927
      7 C           4.4077    0.1788   -2.2496 C.ar    1  UNL1        0.1500
      8 C           5.3366    0.1521   -3.3258 C.ar    1  UNL1       -0.0161
      9 C           5.6550    1.2953   -4.0529 C.ar    1  UNL1        0.0799
     10 C           5.0309    2.4884   -3.6833 C.ar    1  UNL1        0.0689
     11 N           5.2865    3.6535   -4.4467 N.pl3   1  UNL1       -0.3557
     12 C           3.9886    2.4423   -2.6819 C.ar    1  UNL1        0.1703
     13 N           3.1848    3.6509   -2.6751 N.pl3   1  UNL1        0.0602
     14 O           2.0394    3.5794   -3.1406 O.2     1  UNL1       -0.1260
     15 O           3.7303    4.6876   -2.2648 O.2     1  UNL1       -0.1260
     16 C           6.6260    1.2049   -5.2068 C.3     1  UNL1        0.4192
     17 F           7.1501   -0.0407   -5.3784 F       1  UNL1       -0.1658
     18 F           6.0698    1.5384   -6.4019 F       1  UNL1       -0.1658
     19 F           7.6933    2.0372   -5.0449 F       1  UNL1       -0.1658
     20 N           4.2461   -1.1477   -1.6873 N.pl3   1  UNL1        0.0583
     21 O           3.2506   -1.7964   -2.0313 O.2     1  UNL1       -0.1261
     22 O           5.1778   -1.5715   -0.9862 O.2     1  UNL1       -0.1261
     23 H           4.0629   -0.2233    2.0654 H       1  UNL1        0.0245
     24 H           4.0376    1.5185    1.7549 H       1  UNL1        0.0245
     25 H           4.9935    0.4621    0.7205 H       1  UNL1        0.0245
     26 H           1.9451    0.4511    1.0088 H       1  UNL1        0.0461
     27 H           2.7406   -0.6763    0.0210 H       1  UNL1        0.0461
     28 H           2.4665    3.5115   -0.5447 H       1  UNL1        0.0461
     29 H           2.1639    2.6406    0.8701 H       1  UNL1        0.0461
     30 H           0.3686    2.2062   -1.5648 H       1  UNL1        0.0245
     31 H           0.0793    3.4108   -0.2926 H       1  UNL1        0.0245
     32 H           0.0972    1.6933    0.1048 H       1  UNL1        0.0245
     33 H           5.8147   -0.7950   -3.5944 H       1  UNL1        0.0647
     34 H           6.2065    3.7202   -4.8819 H       1  UNL1        0.1424
     35 H           5.0785    4.5340   -3.9644 H       1  UNL1        0.1424
@<TRIPOS>BOND
     1     1     2    1
     2     2     3    1
     3     3     4    1
     4     4     5    1
     5     3     6    1
     6     6     7   ar
     7     7     8   ar
     8     8     9   ar
     9     9    10   ar
    10    10    11    1
    11    10    12   ar
    12     6    12   ar
    13    12    13    1
    14    13    14    2
    15    13    15    2
    16     9    16    1
    17    16    17    1
    18    16    18    1
    19    16    19    1
    20     7    20    1
    21    20    21    2
    22    20    22    2
    23     1    23    1
    24     1    24    1
    25     1    25    1
    26     2    26    1
    27     2    27    1
    28     4    28    1
    29     4    29    1
    30     5    30    1
    31     5    31    1
    32     5    32    1
    33     8    33    1
    34    11    34    1
    35    11    35    1
