@<TRIPOS>MOLECULE
*****
 13 13 0 0 0
SMALL
GASTEIGER

@<TRIPOS>ATOM
      1 N          -3.0779    0.0165   -0.0579 N.1     1  UNL1       -0.1909
      2 C          -1.9167    0.0112   -0.0513 C.1     1  UNL1        0.0992
      3 C          -0.4842    0.0045   -0.0342 C.ar    1  UNL1        0.0518
      4 C           0.2112   -1.2096   -0.0212 C.ar    1  UNL1       -0.0444
      5 C           1.6066   -1.2148    0.0205 C.ar    1  UNL1       -0.0605
      6 C           2.3080   -0.0093    0.0461 C.ar    1  UNL1       -0.0617
      7 C           1.6185    1.2030    0.0215 C.ar    1  UNL1       -0.0605
      8 C           0.2231    1.2115   -0.0190 C.ar    1  UNL1       -0.0444
      9 H          -0.3273   -2.1551   -0.0392 H       1  UNL1        0.0630
     10 H           2.1467   -2.1584    0.0364 H       1  UNL1        0.0618
     11 H           3.3948   -0.0147    0.0864 H       1  UNL1        0.0618
     12 H           2.1681    2.1412    0.0375 H       1  UNL1        0.0618
     13 H          -0.3061    2.1625   -0.0345 H       1  UNL1        0.0630
@<TRIPOS>BOND
     1     1     2    3
     2     2     3    1
     3     3     4   ar
     4     4     5   ar
     5     5     6   ar
     6     6     7   ar
     7     7     8   ar
     8     3     8   ar
     9     4     9    1
    10     5    10    1
    11     6    11    1
    12     7    12    1
    13     8    13    1
