@<TRIPOS>MOLECULE
*****
 22 23 0 0 0
SMALL
GASTEIGER

@<TRIPOS>ATOM
      1 CL         -2.2100    2.2444   -0.0408 Cl      1  UNL1       -0.0835
      2 C          -1.0029    1.0210   -0.0172 C.ar    1  UNL1        0.0438
      3 C           0.2946    1.3213   -0.4112 C.ar    1  UNL1       -0.0244
      4 C           1.2714    0.3117   -0.4407 C.ar    1  UNL1        0.0515
      5 CL          2.7933    0.7657   -1.1328 Cl      1  UNL1       -0.0828
      6 C           1.0029   -0.9981    0.0323 C.ar    1  UNL1        0.0216
      7 C          -0.3158   -1.2436    0.4740 C.ar    1  UNL1        0.0515
      8 CL         -0.8028   -2.7511    1.1871 Cl      1  UNL1       -0.0828
      9 C          -1.3174   -0.2636    0.4019 C.ar    1  UNL1       -0.0244
     10 C           2.0583   -2.0604    0.0557 C.ar    1  UNL1        0.0215
     11 C           3.2285   -1.9354    0.8443 C.ar    1  UNL1        0.0501
     12 CL          3.4901   -0.5965    1.9183 Cl      1  UNL1       -0.0829
     13 C           4.2364   -2.9094    0.8281 C.ar    1  UNL1       -0.0427
     14 C           4.0675   -4.0866    0.1106 C.ar    1  UNL1       -0.0590
     15 C           2.9095   -4.2666   -0.6338 C.ar    1  UNL1       -0.0427
     16 C           1.9447   -3.2505   -0.7048 C.ar    1  UNL1        0.0501
     17 CL          0.6360   -3.5297   -1.8117 Cl      1  UNL1       -0.0829
     18 H           0.5452    2.3371   -0.7105 H       1  UNL1        0.0647
     19 H          -2.3359   -0.4946    0.6907 H       1  UNL1        0.0647
     20 H           5.1563   -2.7579    1.3910 H       1  UNL1        0.0632
     21 H           4.8339   -4.8576    0.1309 H       1  UNL1        0.0618
     22 H           2.7662   -5.2001   -1.1754 H       1  UNL1        0.0632
@<TRIPOS>BOND
     1     1     2    1
     2     2     3   ar
     3     3     4   ar
     4     4     5    1
     5     4     6   ar
     6     6     7   ar
     7     7     8    1
     8     7     9   ar
     9     2     9   ar
    10     6    10    1
    11    10    11   ar
    12    11    12    1
    13    11    13   ar
    14    13    14   ar
    15    14    15   ar
    16    15    16   ar
    17    10    16   ar
    18    16    17    1
    19     3    18    1
    20     9    19    1
    21    13    20    1
    22    14    21    1
    23    15    22    1
