@<TRIPOS>MOLECULE
*****
 21 22 0 0 0
SMALL
GASTEIGER

@<TRIPOS>ATOM
      1 C           2.6952   -1.3390    0.0595 C.3     1  UNL1        0.0196
      2 N           1.4261   -0.6388    0.0211 N.ar    1  UNL1       -0.2622
      3 C           1.4402    0.7712    0.0126 C.ar    1  UNL1        0.3331
      4 O           2.5004    1.4037    0.0194 O.2     1  UNL1       -0.2462
      5 N           0.2024    1.4209   -0.0003 N.ar    1  UNL1       -0.2796
      6 C           0.1311    2.8705    0.0038 C.3     1  UNL1        0.0181
      7 C          -0.9502    0.6739   -0.0006 C.ar    1  UNL1        0.1676
      8 N          -2.2276    1.1468    0.0032 N.ar    1  UNL1       -0.2179
      9 C          -2.9792    0.0633    0.0086 C.ar    1  UNL1        0.0963
     10 N          -2.2228   -1.0807    0.0009 N.ar    1  UNL1       -0.3389
     11 C          -0.9177   -0.6844    0.0004 C.ar    1  UNL1        0.1488
     12 C           0.2799   -1.4412    0.0073 C.ar    1  UNL1        0.2820
     13 O           0.2868   -2.6679    0.0070 O.2     1  UNL1       -0.2652
     14 H           3.5538   -0.6635    0.0513 H       1  UNL1        0.0458
     15 H           2.7615   -2.0079   -0.8046 H       1  UNL1        0.0458
     16 H           2.7333   -1.9471    0.9694 H       1  UNL1        0.0458
     17 H           1.1238    3.3276   -0.0197 H       1  UNL1        0.0458
     18 H          -0.3825    3.1985    0.9130 H       1  UNL1        0.0458
     19 H          -0.4277    3.2050   -0.8759 H       1  UNL1        0.0458
     20 H          -4.0615    0.0424    0.0190 H       1  UNL1        0.1027
     21 H          -2.5605   -2.0346    0.0023 H       1  UNL1        0.1670
@<TRIPOS>BOND
     1     1     2    1
     2     2     3   ar
     3     3     4    2
     4     3     5   ar
     5     5     6    1
     6     5     7   ar
     7     7     8   ar
     8     8     9   ar
     9     9    10   ar
    10    10    11   ar
    11     7    11   ar
    12    11    12   ar
    13     2    12   ar
    14    12    13    2
    15     1    14    1
    16     1    15    1
    17     1    16    1
    18     6    17    1
    19     6    18    1
    20     6    19    1
    21     9    20    1
    22    10    21    1
