@<TRIPOS>MOLECULE
*****
 55 58 0 0 0
SMALL
GASTEIGER

@<TRIPOS>ATOM
      1 C           3.9630    4.3335    3.0064 C.3     1  UNL1       -0.0561
      2 C           4.7490    4.0500    1.6934 C.3     1  UNL1        0.0119
      3 C           5.8575    3.0247    2.0249 C.3     1  UNL1       -0.0150
      4 C           5.3857    1.5932    2.1539 C.3     1  UNL1        0.0910
      5 O           5.0203    1.2998    3.4928 O.3     1  UNL1       -0.3886
      6 C           4.5273    1.1349    0.8953 C.3     1  UNL1        0.1526
      7 F           5.5372    0.4754    0.1686 F       1  UNL1       -0.2377
      8 C           4.1809    2.2862   -0.1160 C.3     1  UNL1        0.0004
      9 C           3.2165    1.9347   -1.3122 C.3     1  UNL1       -0.0432
     10 C           2.1968    0.8255   -1.1049 C.3     1  UNL1       -0.0301
     11 C           2.0279    0.6391    0.3443 C.2     1  UNL1       -0.0532
     12 C           0.8799    1.0143    0.9449 C.2     1  UNL1       -0.0148
     13 C           0.6947    0.7555    2.3955 C.2     1  UNL1        0.1787
     14 O          -0.0694    1.3922    3.0963 O.2     1  UNL1       -0.2879
     15 C           1.5653   -0.3687    2.8675 C.2     1  UNL1       -0.0180
     16 C           2.8519   -0.2287    2.4757 C.2     1  UNL1       -0.0674
     17 C           3.2985    0.0945    1.0466 C.3     1  UNL1        0.0443
     18 C           3.7775   -1.2218    0.3320 C.3     1  UNL1       -0.0493
     19 C           3.7343    3.5649    0.6085 C.3     1  UNL1       -0.0242
     20 C           3.5519    4.7119   -0.4072 C.3     1  UNL1       -0.0199
     21 C           4.1845    5.9446    0.2415 C.3     1  UNL1        0.0917
     22 O           3.2608    6.6053    1.1080 O.3     1  UNL1       -0.3885
     23 C           5.3528    5.3570    1.0722 C.3     1  UNL1        0.1570
     24 O           5.7279    6.2684    2.1072 O.3     1  UNL1       -0.3778
     25 C           6.5796    5.1191    0.1347 C.2     1  UNL1        0.1927
     26 O           6.4571    4.7988   -1.0524 O.2     1  UNL1       -0.2918
     27 C           7.9842    5.1333    0.7381 C.3     1  UNL1        0.1053
     28 O           8.9582    4.7186   -0.2187 O.3     1  UNL1       -0.3874
     29 H           3.4077    3.4519    3.3361 H       1  UNL1        0.0236
     30 H           3.2069    5.1121    2.8997 H       1  UNL1        0.0236
     31 H           4.6322    4.6356    3.8196 H       1  UNL1        0.0236
     32 H           6.4070    3.3446    2.9252 H       1  UNL1        0.0297
     33 H           6.5843    2.9823    1.2128 H       1  UNL1        0.0297
     34 H           6.3103    1.0032    2.0855 H       1  UNL1        0.0626
     35 H           4.5025    2.0078    3.9008 H       1  UNL1        0.2099
     36 H           5.1253    2.5270   -0.6256 H       1  UNL1        0.0336
     37 H           3.8071    1.6967   -2.2046 H       1  UNL1        0.0272
     38 H           2.6246    2.8135   -1.5927 H       1  UNL1        0.0272
     39 H           2.4977   -0.0905   -1.6158 H       1  UNL1        0.0310
     40 H           1.2400    1.1032   -1.5880 H       1  UNL1        0.0310
     41 H           0.0613    1.4788    0.4166 H       1  UNL1        0.0656
     42 H           1.3007   -0.7477    3.8449 H       1  UNL1        0.0653
     43 H           3.2366    0.5623    3.1019 H       1  UNL1        0.0583
     44 H           4.4447   -1.0213   -0.5188 H       1  UNL1        0.0242
     45 H           2.9546   -1.7800   -0.1227 H       1  UNL1        0.0242
     46 H           4.3340   -1.8881    0.9992 H       1  UNL1        0.0242
     47 H           2.7561    3.3779    1.0692 H       1  UNL1        0.0312
     48 H           2.5103    4.8774   -0.6478 H       1  UNL1        0.0294
     49 H           4.0829    4.5071   -1.3409 H       1  UNL1        0.0294
     50 H           4.5306    6.6830   -0.4889 H       1  UNL1        0.0627
     51 H           2.4137    6.1210    1.0884 H       1  UNL1        0.2099
     52 H           4.9509    6.8462    2.2414 H       1  UNL1        0.2109
     53 H           8.0686    4.4588    1.5950 H       1  UNL1        0.0637
     54 H           8.2222    6.1489    1.0448 H       1  UNL1        0.0637
     55 H           8.4957    4.1787   -0.8898 H       1  UNL1        0.2100
@<TRIPOS>BOND
     1     1     2    1
     2     2     3    1
     3     3     4    1
     4     4     5    1
     5     4     6    1
     6     6     7    1
     7     6     8    1
     8     8     9    1
     9     9    10    1
    10    10    11    1
    11    11    12    2
    12    12    13    1
    13    13    14    2
    14    13    15    1
    15    15    16    2
    16    16    17    1
    17     6    17    1
    18    11    17    1
    19    17    18    1
    20     8    19    1
    21     2    19    1
    22    19    20    1
    23    20    21    1
    24    21    22    1
    25    21    23    1
    26     2    23    1
    27    23    24    1
    28    23    25    1
    29    25    26    2
    30    25    27    1
    31    27    28    1
    32     1    29    1
    33     1    30    1
    34     1    31    1
    35     3    32    1
    36     3    33    1
    37     4    34    1
    38     5    35    1
    39     8    36    1
    40     9    37    1
    41     9    38    1
    42    10    39    1
    43    10    40    1
    44    12    41    1
    45    15    42    1
    46    16    43    1
    47    18    44    1
    48    18    45    1
    49    18    46    1
    50    19    47    1
    51    20    48    1
    52    20    49    1
    53    21    50    1
    54    22    51    1
    55    24    52    1
    56    27    53    1
    57    27    54    1
    58    28    55    1
