@<TRIPOS>MOLECULE
*****
 30 29 0 0 0
SMALL
GASTEIGER

@<TRIPOS>ATOM
      1 C           0.8739   -1.0023    1.6599 C.3     1  UNL1       -0.0411
      2 C           2.3820   -0.9205    1.7940 C.3     1  UNL1        0.0525
      3 O           2.9671   -1.1390    0.5148 O.3     1  UNL1       -0.3236
      4 P           4.6971   -1.1390    0.5148 P.3     1  UNL1        0.2299
      5 S           4.6827   -3.1631    0.6553 S.2     1  UNL1        0.0032
      6 O           4.6189   -0.7294   -1.0906 O.3     1  UNL1       -0.3236
      7 C           4.1308    0.5546   -1.4370 C.3     1  UNL1        0.0525
      8 C           4.1980    0.7027   -2.9448 C.3     1  UNL1       -0.0411
      9 S           6.8171   -1.1390    0.5148 S.3     1  UNL1       -0.0631
     10 C           7.2743    0.5496    0.8901 C.3     1  UNL1        0.0483
     11 S           6.5724    1.0779    2.4712 S.3     1  UNL1       -0.1498
     12 C           7.4595    2.6579    2.6421 C.3     1  UNL1       -0.0084
     13 C           7.1006    3.3086    3.9654 C.3     1  UNL1       -0.0562
     14 H           0.3860   -0.6722    2.5829 H       1  UNL1        0.0252
     15 H           0.5675   -2.0341    1.4575 H       1  UNL1        0.0252
     16 H           0.5203   -0.3908    0.8260 H       1  UNL1        0.0252
     17 H           2.7383   -1.6665    2.5105 H       1  UNL1        0.0561
     18 H           2.6794    0.0724    2.1455 H       1  UNL1        0.0561
     19 H           4.7505    1.3174   -0.9578 H       1  UNL1        0.0561
     20 H           3.0960    0.6757   -1.1032 H       1  UNL1        0.0561
     21 H           5.1915    0.4385   -3.3194 H       1  UNL1        0.0252
     22 H           3.9588    1.7247   -3.2477 H       1  UNL1        0.0252
     23 H           3.4846    0.0216   -3.4256 H       1  UNL1        0.0252
     24 H           6.9263    1.2112    0.0945 H       1  UNL1        0.0494
     25 H           8.3654    0.6035    0.9357 H       1  UNL1        0.0494
     26 H           7.1760    3.3149    1.8142 H       1  UNL1        0.0374
     27 H           8.5389    2.4820    2.5967 H       1  UNL1        0.0374
     28 H           6.0206    3.4679    4.0569 H       1  UNL1        0.0238
     29 H           7.5878    4.2863    4.0449 H       1  UNL1        0.0238
     30 H           7.4367    2.7013    4.8126 H       1  UNL1        0.0238
@<TRIPOS>BOND
     1     1     2    1
     2     2     3    1
     3     3     4    1
     4     4     5    2
     5     4     6    1
     6     6     7    1
     7     7     8    1
     8     4     9    1
     9     9    10    1
    10    10    11    1
    11    11    12    1
    12    12    13    1
    13     1    14    1
    14     1    15    1
    15     1    16    1
    16     2    17    1
    17     2    18    1
    18     7    19    1
    19     7    20    1
    20     8    21    1
    21     8    22    1
    22     8    23    1
    23    10    24    1
    24    10    25    1
    25    12    26    1
    26    12    27    1
    27    13    28    1
    28    13    29    1
    29    13    30    1
