@<TRIPOS>MOLECULE
*****
 44 43 0 0 0
SMALL
GASTEIGER

@<TRIPOS>ATOM
      1 C           0.8516   -0.1120   -0.0417 C.3     1  UNL1       -0.0653
      2 C           2.3706   -0.0978   -0.0426 C.3     1  UNL1       -0.0559
      3 C           2.9084    1.2665    0.3749 C.3     1  UNL1       -0.0533
      4 C           4.4354    1.2818    0.3766 C.3     1  UNL1       -0.0531
      5 C           4.9618    2.6498    0.7974 C.3     1  UNL1       -0.0531
      6 C           6.4868    2.6697    0.8012 C.3     1  UNL1       -0.0531
      7 C           7.0088    4.0392    1.2226 C.3     1  UNL1       -0.0531
      8 C           8.5331    4.0591    1.2287 C.3     1  UNL1       -0.0531
      9 C           9.0551    5.4294    1.6476 C.3     1  UNL1       -0.0531
     10 C          10.5805    5.4479    1.6533 C.3     1  UNL1       -0.0531
     11 C          11.1067    6.8170    2.0706 C.3     1  UNL1       -0.0531
     12 C          12.6327    6.8306    2.0761 C.3     1  UNL1       -0.0533
     13 C          13.1693    8.1960    2.4924 C.3     1  UNL1       -0.0559
     14 C          14.6895    8.2074    2.4979 C.3     1  UNL1       -0.0653
     15 H           0.4800   -1.0960   -0.3427 H       1  UNL1        0.0230
     16 H           0.4543    0.6316   -0.7399 H       1  UNL1        0.0230
     17 H           0.4601    0.1104    0.9564 H       1  UNL1        0.0230
     18 H           2.7350   -0.3526   -1.0451 H       1  UNL1        0.0263
     19 H           2.7405   -0.8709    0.6421 H       1  UNL1        0.0263
     20 H           2.5382    1.5191    1.3758 H       1  UNL1        0.0265
     21 H           2.5350    2.0363   -0.3114 H       1  UNL1        0.0265
     22 H           4.8094    1.0338   -0.6242 H       1  UNL1        0.0265
     23 H           4.8125    0.5139    1.0631 H       1  UNL1        0.0265
     24 H           4.5883    2.8987    1.7983 H       1  UNL1        0.0265
     25 H           4.5855    3.4189    0.1115 H       1  UNL1        0.0265
     26 H           6.8628    2.4229   -0.1994 H       1  UNL1        0.0265
     27 H           6.8655    1.9024    1.4876 H       1  UNL1        0.0265
     28 H           6.6322    4.2868    2.2227 H       1  UNL1        0.0265
     29 H           6.6317    4.8063    0.5355 H       1  UNL1        0.0265
     30 H           8.9101    3.8094    0.2291 H       1  UNL1        0.0265
     31 H           8.9100    3.2932    1.9172 H       1  UNL1        0.0265
     32 H           8.6784    5.6784    2.6471 H       1  UNL1        0.0265
     33 H           8.6781    6.1955    0.9590 H       1  UNL1        0.0265
     34 H          10.9550    5.1957    0.6535 H       1  UNL1        0.0265
     35 H          10.9553    4.6808    2.3419 H       1  UNL1        0.0265
     36 H          10.7303    7.0685    3.0696 H       1  UNL1        0.0265
     37 H          10.7319    7.5827    1.3805 H       1  UNL1        0.0265
     38 H          13.0062    6.5762    1.0766 H       1  UNL1        0.0265
     39 H          13.0046    6.0624    2.7650 H       1  UNL1        0.0265
     40 H          12.8027    8.4535    3.4931 H       1  UNL1        0.0263
     41 H          12.8046    8.9674    1.8040 H       1  UNL1        0.0263
     42 H          15.0837    7.4658    3.1996 H       1  UNL1        0.0230
     43 H          15.0620    9.1920    2.7974 H       1  UNL1        0.0230
     44 H          15.0854    7.9817    1.5019 H       1  UNL1        0.0230
@<TRIPOS>BOND
     1     1     2    1
     2     2     3    1
     3     3     4    1
     4     4     5    1
     5     5     6    1
     6     6     7    1
     7     7     8    1
     8     8     9    1
     9     9    10    1
    10    10    11    1
    11    11    12    1
    12    12    13    1
    13    13    14    1
    14     1    15    1
    15     1    16    1
    16     1    17    1
    17     2    18    1
    18     2    19    1
    19     3    20    1
    20     3    21    1
    21     4    22    1
    22     4    23    1
    23     5    24    1
    24     5    25    1
    25     6    26    1
    26     6    27    1
    27     7    28    1
    28     7    29    1
    29     8    30    1
    30     8    31    1
    31     9    32    1
    32     9    33    1
    33    10    34    1
    34    10    35    1
    35    11    36    1
    36    11    37    1
    37    12    38    1
    38    12    39    1
    39    13    40    1
    40    13    41    1
    41    14    42    1
    42    14    43    1
    43    14    44    1
