@<TRIPOS>MOLECULE
*****
 6 5 0 0 0
SMALL
GASTEIGER

@<TRIPOS>ATOM
      1 CL          1.1166   -0.0268    0.0501 Cl      1  UNL1       -0.0711
      2 C           2.8394   -0.0188    0.0717 C.2     1  UNL1        0.0995
      3 C           3.5070    0.3866    1.1546 C.2     1  UNL1       -0.0689
      4 CL          3.6808   -0.5458   -1.3364 Cl      1  UNL1       -0.0711
      5 H           2.9863    0.7201    2.0457 H       1  UNL1        0.0558
      6 H           4.5913    0.3952    1.1778 H       1  UNL1        0.0558
@<TRIPOS>BOND
     1     1     2    1
     2     2     3    2
     3     2     4    1
     4     3     5    1
     5     3     6    1
