@<TRIPOS>MOLECULE
*****
 44 47 0 0 0
SMALL
GASTEIGER

@<TRIPOS>ATOM
      1 C           0.7816   -0.1630    1.2782 C.3     1  UNL1       -0.0569
      2 C           2.0251   -0.2521    0.3464 C.3     1  UNL1       -0.0030
      3 C           1.4371   -0.3647   -1.0941 C.3     1  UNL1       -0.0445
      4 C           1.9091   -1.4809   -2.0240 C.3     1  UNL1       -0.0454
      5 C           2.4239   -2.7351   -1.3092 C.3     1  UNL1       -0.0125
      6 C           3.5352   -2.3554   -0.3251 C.3     1  UNL1       -0.0305
      7 C           4.7654   -1.8555   -1.1103 C.3     1  UNL1       -0.0454
      8 C           5.3122   -2.9307   -2.0542 C.3     1  UNL1       -0.0270
      9 C           4.2641   -3.7757   -2.7334 C.ar    1  UNL1       -0.0405
     10 C           4.6684   -4.6713   -3.7381 C.ar    1  UNL1       -0.0167
     11 C           3.7369   -5.5162   -4.3356 C.ar    1  UNL1        0.1171
     12 O           4.1002   -6.3823   -5.3248 O.3     1  UNL1       -0.5068
     13 C           2.4144   -5.5056   -3.9339 C.ar    1  UNL1       -0.0199
     14 C           1.9968   -4.6177   -2.9375 C.ar    1  UNL1       -0.0546
     15 C           2.9166   -3.7422   -2.3378 C.ar    1  UNL1       -0.0406
     16 C           2.9560   -1.4330    0.7806 C.3     1  UNL1       -0.0298
     17 C           4.0603   -0.7848    1.6234 C.3     1  UNL1       -0.0470
     18 C           4.3059    0.5587    0.9550 C.3     1  UNL1       -0.0261
     19 C           2.9086    1.0333    0.5733 C.3     1  UNL1        0.0609
     20 O           2.4418    1.8464    1.6571 O.3     1  UNL1       -0.3912
     21 H           0.0745   -0.9792    1.0943 H       1  UNL1        0.0236
     22 H           0.2343    0.7775    1.0913 H       1  UNL1        0.0236
     23 H           1.0431   -0.1941    2.3379 H       1  UNL1        0.0236
     24 H           1.5277    0.5931   -1.6207 H       1  UNL1        0.0272
     25 H           0.3505   -0.5141   -1.0212 H       1  UNL1        0.0272
     26 H           2.6666   -1.0770   -2.7054 H       1  UNL1        0.0271
     27 H           1.0759   -1.7588   -2.6837 H       1  UNL1        0.0271
     28 H           1.6040   -3.1942   -0.7414 H       1  UNL1        0.0352
     29 H           3.8652   -3.2698    0.1945 H       1  UNL1        0.0310
     30 H           5.5857   -1.5751   -0.4423 H       1  UNL1        0.0271
     31 H           4.5226   -0.9581   -1.6891 H       1  UNL1        0.0271
     32 H           5.9527   -3.6056   -1.4709 H       1  UNL1        0.0313
     33 H           5.9479   -2.4512   -2.8125 H       1  UNL1        0.0313
     34 H           5.7128   -4.6985   -4.0410 H       1  UNL1        0.0657
     35 H           5.0349   -6.2334   -5.5385 H       1  UNL1        0.2921
     36 H           1.6971   -6.1772   -4.3984 H       1  UNL1        0.0654
     37 H           0.9566   -4.6140   -2.6373 H       1  UNL1        0.0622
     38 H           2.3795   -2.0987    1.4392 H       1  UNL1        0.0310
     39 H           4.9682   -1.3911    1.6952 H       1  UNL1        0.0269
     40 H           3.7021   -0.6312    2.6491 H       1  UNL1        0.0269
     41 H           4.9218    0.4622    0.0589 H       1  UNL1        0.0290
     42 H           4.8253    1.2417    1.6352 H       1  UNL1        0.0290
     43 H           2.9442    1.6809   -0.3066 H       1  UNL1        0.0599
     44 H           2.5891    1.3651    2.4913 H       1  UNL1        0.2098
@<TRIPOS>BOND
     1     1     2    1
     2     2     3    1
     3     3     4    1
     4     4     5    1
     5     5     6    1
     6     6     7    1
     7     7     8    1
     8     8     9    1
     9     9    10   ar
    10    10    11   ar
    11    11    12    1
    12    11    13   ar
    13    13    14   ar
    14    14    15   ar
    15     5    15    1
    16     9    15   ar
    17     6    16    1
    18     2    16    1
    19    16    17    1
    20    17    18    1
    21    18    19    1
    22     2    19    1
    23    19    20    1
    24     1    21    1
    25     1    22    1
    26     1    23    1
    27     3    24    1
    28     3    25    1
    29     4    26    1
    30     4    27    1
    31     5    28    1
    32     6    29    1
    33     7    30    1
    34     7    31    1
    35     8    32    1
    36     8    33    1
    37    10    34    1
    38    12    35    1
    39    13    36    1
    40    14    37    1
    41    16    38    1
    42    17    39    1
    43    17    40    1
    44    18    41    1
    45    18    42    1
    46    19    43    1
    47    20    44    1
