@<TRIPOS>MOLECULE
*****
 38 39 0 0 0
SMALL
GASTEIGER

@<TRIPOS>ATOM
      1 C           1.2162    0.2803    0.0210 C.3     1  UNL1        0.0833
      2 O           2.6366    0.3162    0.2050 O.3     1  UNL1       -0.4535
      3 C           3.0877   -0.6831    1.0151 C.2     1  UNL1        0.4043
      4 O           2.3457   -1.5105    1.5208 O.2     1  UNL1       -0.2261
      5 N           4.4508   -0.5659    1.1802 N.am    1  UNL1       -0.2511
      6 C           5.2614   -1.4173    1.9674 C.ar    1  UNL1        0.0399
      7 C           4.7917   -2.6602    2.4081 C.ar    1  UNL1       -0.0401
      8 C           5.5399   -3.4444    3.2771 C.ar    1  UNL1       -0.0565
      9 C           6.7829   -3.0007    3.7068 C.ar    1  UNL1       -0.0191
     10 C           7.3224   -1.8198    3.1874 C.ar    1  UNL1        0.1350
     11 O           8.6269   -1.3893    3.5549 O.3     1  UNL1       -0.4113
     12 C           9.6197   -2.3825    3.6529 C.2     1  UNL1        0.4099
     13 O           9.4387   -3.5445    3.3100 O.2     1  UNL1       -0.2257
     14 N          10.7867   -1.8840    4.2052 N.am    1  UNL1       -0.2508
     15 C          11.9304   -2.6586    4.5456 C.ar    1  UNL1        0.0367
     16 C          12.0719   -4.0028    4.1877 C.ar    1  UNL1       -0.0404
     17 C          13.1650   -4.7614    4.6086 C.ar    1  UNL1       -0.0598
     18 C          14.1567   -4.1797    5.3851 C.ar    1  UNL1       -0.0587
     19 C          14.0728   -2.8258    5.7248 C.ar    1  UNL1       -0.0487
     20 C          15.1586   -2.2048    6.5558 C.3     1  UNL1       -0.0397
     21 C          12.9591   -2.0680    5.2994 C.ar    1  UNL1       -0.0375
     22 C           6.5583   -1.0072    2.3385 C.ar    1  UNL1        0.0022
     23 H           0.9416    1.0278   -0.7277 H       1  UNL1        0.0661
     24 H           0.7103    0.5276    0.9603 H       1  UNL1        0.0661
     25 H           0.8874   -0.7007   -0.3415 H       1  UNL1        0.0661
     26 H           4.8544    0.2756    0.7926 H       1  UNL1        0.1582
     27 H           3.8364   -3.0631    2.0788 H       1  UNL1        0.0636
     28 H           5.1511   -4.4006    3.6161 H       1  UNL1        0.0619
     29 H           7.3327   -3.6144    4.4131 H       1  UNL1        0.0654
     30 H          10.7676   -0.9111    4.4778 H       1  UNL1        0.1582
     31 H          11.3463   -4.5162    3.5670 H       1  UNL1        0.0636
     32 H          13.2305   -5.8099    4.3296 H       1  UNL1        0.0618
     33 H          14.9930   -4.7900    5.7185 H       1  UNL1        0.0620
     34 H          15.9657   -2.9196    6.7549 H       1  UNL1        0.0278
     35 H          14.7589   -1.8788    7.5207 H       1  UNL1        0.0278
     36 H          15.5986   -1.3512    6.0314 H       1  UNL1        0.0278
     37 H          12.9003   -1.0214    5.5860 H       1  UNL1        0.0639
     38 H           6.9642   -0.0682    1.9822 H       1  UNL1        0.0673
@<TRIPOS>BOND
     1     1     2    1
     2     2     3    1
     3     3     4    2
     4     3     5   am
     5     5     6    1
     6     6     7   ar
     7     7     8   ar
     8     8     9   ar
     9     9    10   ar
    10    10    11    1
    11    11    12    1
    12    12    13    2
    13    12    14   am
    14    14    15    1
    15    15    16   ar
    16    16    17   ar
    17    17    18   ar
    18    18    19   ar
    19    19    20    1
    20    19    21   ar
    21    15    21   ar
    22    10    22   ar
    23     6    22   ar
    24     1    23    1
    25     1    24    1
    26     1    25    1
    27     5    26    1
    28     7    27    1
    29     8    28    1
    30     9    29    1
    31    14    30    1
    32    16    31    1
    33    17    32    1
    34    18    33    1
    35    20    34    1
    36    20    35    1
    37    20    36    1
    38    21    37    1
    39    22    38    1
