@<TRIPOS>MOLECULE
*****
 36 35 0 0 0
SMALL
GASTEIGER

@<TRIPOS>ATOM
      1 C           0.9824   -0.4670    1.4643 C.3     1  UNL1       -0.0411
      2 C           2.4941   -0.3885    1.4801 C.3     1  UNL1        0.0525
      3 O           3.0413   -1.3190    0.5402 O.3     1  UNL1       -0.3236
      4 P           4.7713   -1.3190    0.5402 P.3     1  UNL1        0.2299
      5 S           4.5956   -2.8878    1.8471 S.2     1  UNL1        0.0032
      6 O           4.6934   -1.9327   -1.0010 O.3     1  UNL1       -0.3236
      7 C           4.1250   -1.1423   -2.0294 C.3     1  UNL1        0.0525
      8 C           4.1775   -1.8876   -3.3456 C.3     1  UNL1       -0.0411
      9 S           6.8913   -1.3190    0.5402 S.3     1  UNL1       -0.0631
     10 C           7.6303   -2.6677    1.4626 C.3     1  UNL1        0.0488
     11 S           9.4496   -2.6397    1.4056 S.3     1  UNL1       -0.1436
     12 C           9.8511   -4.0703    2.5235 C.3     1  UNL1        0.0090
     13 C           9.3422   -5.3856    1.9195 C.3     1  UNL1       -0.0509
     14 C          11.3818   -4.1424    2.6484 C.3     1  UNL1       -0.0509
     15 C           9.2550   -3.8567    3.9223 C.3     1  UNL1       -0.0509
     16 H           0.5533    0.3064    2.1071 H       1  UNL1        0.0252
     17 H           0.6461   -1.4450    1.8236 H       1  UNL1        0.0252
     18 H           0.6023   -0.3440    0.4463 H       1  UNL1        0.0252
     19 H           2.8540   -0.6110    2.4895 H       1  UNL1        0.0561
     20 H           2.8311    0.6178    1.2127 H       1  UNL1        0.0561
     21 H           4.6772   -0.1982   -2.1035 H       1  UNL1        0.0561
     22 H           3.0802   -0.9142   -1.7978 H       1  UNL1        0.0561
     23 H           5.2088   -2.1352   -3.6150 H       1  UNL1        0.0252
     24 H           3.7420   -1.2881   -4.1513 H       1  UNL1        0.0252
     25 H           3.6255   -2.8326   -3.2800 H       1  UNL1        0.0252
     26 H           7.2882   -3.6157    1.0469 H       1  UNL1        0.0494
     27 H           7.3362   -2.5520    2.5046 H       1  UNL1        0.0494
     28 H           9.8036   -5.5878    0.9459 H       1  UNL1        0.0243
     29 H           8.2553   -5.3993    1.7932 H       1  UNL1        0.0243
     30 H           9.5882   -6.2291    2.5746 H       1  UNL1        0.0243
     31 H          11.8637   -4.3459    1.6844 H       1  UNL1        0.0243
     32 H          11.6741   -4.9485    3.3323 H       1  UNL1        0.0243
     33 H          11.8018   -3.2137    3.0528 H       1  UNL1        0.0243
     34 H           8.1614   -3.8612    3.9193 H       1  UNL1        0.0243
     35 H           9.5960   -2.9147    4.3671 H       1  UNL1        0.0243
     36 H           9.5581   -4.6645    4.5995 H       1  UNL1        0.0243
@<TRIPOS>BOND
     1     1     2    1
     2     2     3    1
     3     3     4    1
     4     4     5    2
     5     4     6    1
     6     6     7    1
     7     7     8    1
     8     4     9    1
     9     9    10    1
    10    10    11    1
    11    11    12    1
    12    12    13    1
    13    12    14    1
    14    12    15    1
    15     1    16    1
    16     1    17    1
    17     1    18    1
    18     2    19    1
    19     2    20    1
    20     7    21    1
    21     7    22    1
    22     8    23    1
    23     8    24    1
    24     8    25    1
    25    10    26    1
    26    10    27    1
    27    13    28    1
    28    13    29    1
    29    13    30    1
    30    14    31    1
    31    14    32    1
    32    14    33    1
    33    15    34    1
    34    15    35    1
    35    15    36    1
