@<TRIPOS>MOLECULE
*****
 24 25 0 0 0
SMALL
GASTEIGER

@<TRIPOS>ATOM
      1 N           1.0366   -0.0232   -0.0675 N.pl3   1  UNL1       -0.3145
      2 C           0.1977    1.1096   -0.0690 C.ar    1  UNL1        0.0313
      3 C           0.6178    2.3193   -0.6400 C.ar    1  UNL1       -0.0405
      4 C          -0.1925    3.4551   -0.6078 C.ar    1  UNL1       -0.0600
      5 C          -1.4517    3.3868   -0.0218 C.ar    1  UNL1       -0.0616
      6 C          -1.9033    2.1831    0.5158 C.ar    1  UNL1       -0.0600
      7 C          -1.0855    1.0478    0.4866 C.ar    1  UNL1       -0.0405
      8 C           2.4428   -0.0387    0.0598 C.ar    1  UNL1        0.0313
      9 C           3.1365    0.9439    0.7786 C.ar    1  UNL1       -0.0405
     10 C           4.5296    0.9315    0.8515 C.ar    1  UNL1       -0.0600
     11 C           5.2474   -0.0763    0.2143 C.ar    1  UNL1       -0.0616
     12 C           4.5708   -1.0766   -0.4816 C.ar    1  UNL1       -0.0600
     13 C           3.1748   -1.0634   -0.5491 C.ar    1  UNL1       -0.0405
     14 H           0.6137   -0.8576    0.3255 H       1  UNL1        0.1522
     15 H           1.5902    2.3835   -1.1223 H       1  UNL1        0.0636
     16 H           0.1658    4.3854   -1.0407 H       1  UNL1        0.0618
     17 H          -2.0820    4.2728    0.0109 H       1  UNL1        0.0618
     18 H          -2.8925    2.1273    0.9646 H       1  UNL1        0.0618
     19 H          -1.4571    0.1225    0.9171 H       1  UNL1        0.0636
     20 H           2.5923    1.7332    1.2927 H       1  UNL1        0.0636
     21 H           5.0482    1.7129    1.4004 H       1  UNL1        0.0618
     22 H           6.3331   -0.0803    0.2592 H       1  UNL1        0.0618
     23 H           5.1304   -1.8606   -0.9843 H       1  UNL1        0.0618
     24 H           2.6617   -1.8345   -1.1180 H       1  UNL1        0.0636
@<TRIPOS>BOND
     1     1     2    1
     2     2     3   ar
     3     3     4   ar
     4     4     5   ar
     5     5     6   ar
     6     6     7   ar
     7     2     7   ar
     8     1     8    1
     9     8     9   ar
    10     9    10   ar
    11    10    11   ar
    12    11    12   ar
    13    12    13   ar
    14     8    13   ar
    15     1    14    1
    16     3    15    1
    17     4    16    1
    18     5    17    1
    19     6    18    1
    20     7    19    1
    21     9    20    1
    22    10    21    1
    23    11    22    1
    24    12    23    1
    25    13    24    1
