@<TRIPOS>MOLECULE
*****
 26 26 0 0 0
SMALL
GASTEIGER

@<TRIPOS>ATOM
      1 C           0.8593   -0.3798   -0.0072 C.3     1  UNL1       -0.0307
      2 C           2.3373   -0.6696    0.1694 C.3     1  UNL1        0.0868
      3 O           2.9606   -0.7436   -1.1158 O.3     1  UNL1       -0.4922
      4 C           4.3090   -0.9887   -1.1100 C.ar    1  UNL1        0.1206
      5 C           5.0859   -1.1852    0.0287 C.ar    1  UNL1       -0.0182
      6 C           6.4602   -1.4220   -0.0784 C.ar    1  UNL1       -0.0370
      7 C           7.0862   -1.4691   -1.3222 C.ar    1  UNL1        0.0336
      8 N           8.4713   -1.6919   -1.4854 N.am    1  UNL1       -0.2857
      9 C           9.4036   -1.8871   -0.4819 C.2     1  UNL1        0.2141
     10 O           9.1920   -1.9129    0.7262 O.2     1  UNL1       -0.2758
     11 C          10.8089   -2.0775   -0.9928 C.3     1  UNL1        0.0125
     12 C           6.3049   -1.2796   -2.4690 C.ar    1  UNL1       -0.0370
     13 C           4.9261   -1.0404   -2.3612 C.ar    1  UNL1       -0.0182
     14 H           0.3674   -0.2985    0.9669 H       1  UNL1        0.0262
     15 H           0.3753   -1.1765   -0.5804 H       1  UNL1        0.0262
     16 H           0.7097    0.5541   -0.5578 H       1  UNL1        0.0262
     17 H           2.4461   -1.6253    0.6956 H       1  UNL1        0.0694
     18 H           2.7843    0.1394    0.7597 H       1  UNL1        0.0694
     19 H           4.6657   -1.1616    1.0280 H       1  UNL1        0.0655
     20 H           7.0083   -1.5652    0.8476 H       1  UNL1        0.0637
     21 H           8.8054   -1.7009   -2.4411 H       1  UNL1        0.1548
     22 H          10.8685   -2.0306   -2.0817 H       1  UNL1        0.0323
     23 H          11.1730   -3.0558   -0.6624 H       1  UNL1        0.0323
     24 H          11.4430   -1.2920   -0.5727 H       1  UNL1        0.0323
     25 H           6.7496   -1.3098   -3.4611 H       1  UNL1        0.0637
     26 H           4.3318   -0.8913   -3.2595 H       1  UNL1        0.0655
@<TRIPOS>BOND
     1     1     2    1
     2     2     3    1
     3     3     4    1
     4     4     5   ar
     5     5     6   ar
     6     6     7   ar
     7     7     8    1
     8     8     9   am
     9     9    10    2
    10     9    11    1
    11     7    12   ar
    12    12    13   ar
    13     4    13   ar
    14     1    14    1
    15     1    15    1
    16     1    16    1
    17     2    17    1
    18     2    18    1
    19     5    19    1
    20     6    20    1
    21     8    21    1
    22    11    22    1
    23    11    23    1
    24    11    24    1
    25    12    25    1
    26    13    26    1
