@<TRIPOS>MOLECULE
*****
 31 31 0 0 0
SMALL
GASTEIGER

@<TRIPOS>ATOM
      1 C           1.8901   -0.8323    1.7598 C.3     1  UNL1       -0.0653
      2 C           2.9715   -0.3789    0.7889 C.3     1  UNL1       -0.0559
      3 C           3.4742   -1.5532   -0.0563 C.3     1  UNL1       -0.0519
      4 C           4.5714   -1.1276   -1.0454 C.3     1  UNL1       -0.0306
      5 C           5.1520   -2.2843   -1.9140 C.3     1  UNL1        0.1232
      6 C           6.2386   -1.7020   -2.8620 C.3     1  UNL1       -0.0334
      7 C           6.8767   -2.7411   -3.7852 C.3     1  UNL1       -0.0639
      8 C           4.0437   -2.8678   -2.7733 C.2     1  UNL1        0.2354
      9 O           3.5261   -2.2542   -3.7061 O.2     1  UNL1       -0.2742
     10 N           3.6224   -4.1319   -2.4803 N.am    1  UNL1       -0.2390
     11 C           4.2297   -5.0028   -1.6355 C.2     1  UNL1        0.3122
     12 O           3.9276   -6.1910   -1.6116 O.2     1  UNL1       -0.2520
     13 N           5.2236   -4.5087   -0.8567 N.am    1  UNL1       -0.2390
     14 C           5.8156   -3.2841   -0.9869 C.2     1  UNL1        0.2354
     15 O           6.8346   -3.0321   -0.3471 O.2     1  UNL1       -0.2742
     16 H           1.5313    0.0109    2.3582 H       1  UNL1        0.0230
     17 H           2.2744   -1.5952    2.4451 H       1  UNL1        0.0230
     18 H           1.0352   -1.2555    1.2225 H       1  UNL1        0.0230
     19 H           3.8008    0.0617    1.3549 H       1  UNL1        0.0263
     20 H           2.5669    0.4065    0.1401 H       1  UNL1        0.0263
     21 H           2.6275   -1.9824   -0.6034 H       1  UNL1        0.0266
     22 H           3.8561   -2.3295    0.6158 H       1  UNL1        0.0266
     23 H           5.3864   -0.6598   -0.4758 H       1  UNL1        0.0280
     24 H           4.1645   -0.3456   -1.7006 H       1  UNL1        0.0280
     25 H           7.0370   -1.2296   -2.2756 H       1  UNL1        0.0277
     26 H           5.8061   -0.9105   -3.4877 H       1  UNL1        0.0277
     27 H           7.3830   -3.5271   -3.2168 H       1  UNL1        0.0230
     28 H           7.6219   -2.2627   -4.4286 H       1  UNL1        0.0230
     29 H           6.1349   -3.2138   -4.4363 H       1  UNL1        0.0230
     30 H           2.9204   -4.5228   -3.0935 H       1  UNL1        0.1591
     31 H           5.6983   -5.1738   -0.2614 H       1  UNL1        0.1591
@<TRIPOS>BOND
     1     1     2    1
     2     2     3    1
     3     3     4    1
     4     4     5    1
     5     5     6    1
     6     6     7    1
     7     5     8    1
     8     8     9    2
     9     8    10   am
    10    10    11   am
    11    11    12    2
    12    11    13   am
    13    13    14   am
    14     5    14    1
    15    14    15    2
    16     1    16    1
    17     1    17    1
    18     1    18    1
    19     2    19    1
    20     2    20    1
    21     3    21    1
    22     3    22    1
    23     4    23    1
    24     4    24    1
    25     6    25    1
    26     6    26    1
    27     7    27    1
    28     7    28    1
    29     7    29    1
    30    10    30    1
    31    13    31    1
