@<TRIPOS>MOLECULE
*****
 16 15 0 0 0
SMALL
GASTEIGER

@<TRIPOS>ATOM
      1 O           0.9156   -0.0198   -0.0800 O.3     1  UNL1       -0.3950
      2 C           2.3358   -0.0073   -0.0643 C.3     1  UNL1        0.0445
      3 C           2.8517   -1.0526   -1.0421 C.3     1  UNL1       -0.0263
      4 C           4.3768   -1.0738   -1.0605 C.3     1  UNL1       -0.0329
      5 C           4.9124   -2.1041   -2.0110 C.2     1  UNL1       -0.0910
      6 C           5.6987   -3.1139   -1.6228 C.2     1  UNL1       -0.1026
      7 H           0.6176    0.6552    0.5534 H       1  UNL1        0.2094
      8 H           2.6755   -0.2243    0.9536 H       1  UNL1        0.0557
      9 H           2.6784    0.9933   -0.3470 H       1  UNL1        0.0557
     10 H           2.4549   -0.8428   -2.0442 H       1  UNL1        0.0290
     11 H           2.4557   -2.0381   -0.7652 H       1  UNL1        0.0290
     12 H           4.7476   -1.2687   -0.0462 H       1  UNL1        0.0308
     13 H           4.7594   -0.0889   -1.3551 H       1  UNL1        0.0308
     14 H           4.6456   -2.0065   -3.0642 H       1  UNL1        0.0566
     15 H           5.9873   -3.2387   -0.5831 H       1  UNL1        0.0532
     16 H           6.0715   -3.8410   -2.3369 H       1  UNL1        0.0532
@<TRIPOS>BOND
     1     1     2    1
     2     2     3    1
     3     3     4    1
     4     4     5    1
     5     5     6    2
     6     1     7    1
     7     2     8    1
     8     2     9    1
     9     3    10    1
    10     3    11    1
    11     4    12    1
    12     4    13    1
    13     5    14    1
    14     6    15    1
    15     6    16    1
