@<TRIPOS>MOLECULE
*****
 36 36 0 0 0
SMALL
GASTEIGER

@<TRIPOS>ATOM
      1 C           1.0432    0.0934   -0.1250 C.3     1  UNL1        0.0036
      2 N           2.4928    0.0445   -0.0850 N.am    1  UNL1       -0.2987
      3 C           3.1216   -1.0207    0.6860 C.3     1  UNL1        0.0036
      4 C           3.1904    1.0218   -0.7907 C.2     1  UNL1        0.2740
      5 O           2.6472    1.9226   -1.4230 O.2     1  UNL1       -0.2628
      6 S           4.9448    0.8909   -0.7231 S.3     1  UNL1       -0.0675
      7 C           5.4295    2.3228   -1.7234 C.3     1  UNL1        0.0026
      8 C           6.9588    2.4054   -1.7574 C.3     1  UNL1       -0.0405
      9 C           7.4911    3.5750   -2.5902 C.3     1  UNL1       -0.0179
     10 C           7.0543    4.9329   -2.0490 C.3     1  UNL1        0.0896
     11 O           7.6319    5.9623   -2.8509 O.3     1  UNL1       -0.4920
     12 C           7.3415    7.2472   -2.4705 C.ar    1  UNL1        0.1205
     13 C           6.5158    7.6180   -1.4060 C.ar    1  UNL1       -0.0199
     14 C           6.3137    8.9674   -1.1064 C.ar    1  UNL1       -0.0583
     15 C           6.9339    9.9534   -1.8695 C.ar    1  UNL1       -0.0615
     16 C           7.7497    9.5915   -2.9392 C.ar    1  UNL1       -0.0583
     17 C           7.9500    8.2422   -3.2390 C.ar    1  UNL1       -0.0199
     18 H           0.5995   -0.7208    0.4543 H       1  UNL1        0.0429
     19 H           0.7114    0.0148   -1.1649 H       1  UNL1        0.0429
     20 H           0.7054    1.0503    0.2835 H       1  UNL1        0.0429
     21 H           2.3747   -1.6700    1.1495 H       1  UNL1        0.0429
     22 H           3.7391   -0.5795    1.4747 H       1  UNL1        0.0429
     23 H           3.7481   -1.6267    0.0243 H       1  UNL1        0.0429
     24 H           5.0014    3.2209   -1.2689 H       1  UNL1        0.0381
     25 H           5.0325    2.2186   -2.7385 H       1  UNL1        0.0381
     26 H           7.3697    1.4783   -2.1778 H       1  UNL1        0.0274
     27 H           7.3530    2.4944   -0.7365 H       1  UNL1        0.0274
     28 H           7.1785    3.4723   -3.6363 H       1  UNL1        0.0298
     29 H           8.5882    3.5330   -2.6041 H       1  UNL1        0.0298
     30 H           7.3973    5.0299   -1.0116 H       1  UNL1        0.0696
     31 H           5.9637    5.0123   -2.0981 H       1  UNL1        0.0696
     32 H           6.0113    6.8841   -0.7867 H       1  UNL1        0.0654
     33 H           5.6728    9.2463   -0.2743 H       1  UNL1        0.0619
     34 H           6.7796   11.0024   -1.6312 H       1  UNL1        0.0618
     35 H           8.2326   10.3576   -3.5395 H       1  UNL1        0.0619
     36 H           8.5871    7.9643   -4.0743 H       1  UNL1        0.0654
@<TRIPOS>BOND
     1     1     2    1
     2     2     3    1
     3     2     4   am
     4     4     5    2
     5     4     6    1
     6     6     7    1
     7     7     8    1
     8     8     9    1
     9     9    10    1
    10    10    11    1
    11    11    12    1
    12    12    13   ar
    13    13    14   ar
    14    14    15   ar
    15    15    16   ar
    16    16    17   ar
    17    12    17   ar
    18     1    18    1
    19     1    19    1
    20     1    20    1
    21     3    21    1
    22     3    22    1
    23     3    23    1
    24     7    24    1
    25     7    25    1
    26     8    26    1
    27     8    27    1
    28     9    28    1
    29     9    29    1
    30    10    30    1
    31    10    31    1
    32    13    32    1
    33    14    33    1
    34    15    34    1
    35    16    35    1
    36    17    36    1
