@<TRIPOS>MOLECULE
*****
 11 10 0 0 0
SMALL
GASTEIGER

@<TRIPOS>ATOM
      1 C           1.0025   -0.0713    0.0884 C.3     1  UNL1       -0.0491
      2 C           2.5239   -0.0614    0.0623 C.3     1  UNL1        0.0284
      3 C           3.0567    0.2679   -1.3246 C.3     1  UNL1       -0.0491
      4 CL          3.1344    1.1376    1.2378 Cl      1  UNL1       -0.1223
      5 H           0.6107   -0.8206   -0.6079 H       1  UNL1        0.0244
      6 H           0.5887    0.9016   -0.1989 H       1  UNL1        0.0244
      7 H           0.6274   -0.3184    1.0873 H       1  UNL1        0.0244
      8 H           2.9030   -1.0383    0.3786 H       1  UNL1        0.0460
      9 H           2.7172    1.2532   -1.6627 H       1  UNL1        0.0244
     10 H           2.7143   -0.4731   -2.0546 H       1  UNL1        0.0244
     11 H           4.1520    0.2638   -1.3364 H       1  UNL1        0.0244
@<TRIPOS>BOND
     1     1     2    1
     2     2     3    1
     3     2     4    1
     4     1     5    1
     5     1     6    1
     6     1     7    1
     7     2     8    1
     8     3     9    1
     9     3    10    1
    10     3    11    1
