@<TRIPOS>MOLECULE
*****
 22 23 0 0 0
SMALL
GASTEIGER

@<TRIPOS>ATOM
      1 CL          2.5500    1.7038   -0.7089 Cl      1  UNL1       -0.0820
      2 C           1.1446    0.7576   -0.3652 C.ar    1  UNL1        0.0613
      3 C          -0.0027    1.4501    0.0309 C.ar    1  UNL1       -0.0222
      4 C          -1.1374    0.7406    0.4075 C.ar    1  UNL1        0.0613
      5 CL         -2.5573    1.6847    0.7405 Cl      1  UNL1       -0.0820
      6 C          -1.1215   -0.6611    0.4693 C.ar    1  UNL1        0.0685
      7 CL         -2.4664   -1.4745    1.2179 Cl      1  UNL1       -0.0814
      8 C          -0.0010   -1.3939   -0.0058 C.ar    1  UNL1        0.0245
      9 C           1.1191   -0.6446   -0.4670 C.ar    1  UNL1        0.0685
     10 CL          2.4698   -1.4490   -1.2237 Cl      1  UNL1       -0.0814
     11 C          -0.0031   -2.8995   -0.0270 C.ar    1  UNL1        0.0245
     12 C          -0.9445   -3.6333   -0.8017 C.ar    1  UNL1        0.0685
     13 CL         -2.0332   -2.8045   -1.8841 Cl      1  UNL1       -0.0814
     14 C          -0.9832   -5.0395   -0.7534 C.ar    1  UNL1        0.0613
     15 CL         -2.2408   -5.9680   -1.4964 Cl      1  UNL1       -0.0820
     16 C           0.0057   -5.7447   -0.0772 C.ar    1  UNL1       -0.0222
     17 C           0.9893   -5.0590    0.6236 C.ar    1  UNL1        0.0613
     18 CL          2.2545   -6.0051    1.3301 Cl      1  UNL1       -0.0820
     19 C           0.9406   -3.6549    0.7254 C.ar    1  UNL1        0.0685
     20 CL          2.0198   -2.8595    1.8417 Cl      1  UNL1       -0.0814
     21 H          -0.0036    2.5392    0.0361 H       1  UNL1        0.0648
     22 H           0.0097   -6.8354   -0.0991 H       1  UNL1        0.0648
@<TRIPOS>BOND
     1     1     2    1
     2     2     3   ar
     3     3     4   ar
     4     4     5    1
     5     4     6   ar
     6     6     7    1
     7     6     8   ar
     8     8     9   ar
     9     2     9   ar
    10     9    10    1
    11     8    11    1
    12    11    12   ar
    13    12    13    1
    14    12    14   ar
    15    14    15    1
    16    14    16   ar
    17    16    17   ar
    18    17    18    1
    19    17    19   ar
    20    11    19   ar
    21    19    20    1
    22     3    21    1
    23    16    22    1
