@<TRIPOS>MOLECULE
*****
 26 28 0 0 0
SMALL
GASTEIGER

@<TRIPOS>ATOM
      1 C           1.0737    0.0727   -0.0338 C.3     1  UNL1       -0.0394
      2 C           2.5703    0.0732   -0.0338 C.ar    1  UNL1       -0.0464
      3 C           3.2916   -1.1297   -0.0330 C.ar    1  UNL1       -0.0585
      4 C           4.6970   -1.1377   -0.0328 C.ar    1  UNL1       -0.0609
      5 C           5.4201    0.0571   -0.0344 C.ar    1  UNL1       -0.0537
      6 C           4.7187    1.2507   -0.0347 C.ar    1  UNL1       -0.0139
      7 C           3.3041    1.2564   -0.0338 C.ar    1  UNL1       -0.0324
      8 C           2.7964    2.6886   -0.0294 C.3     1  UNL1       -0.0010
      9 C           4.0850    3.4873   -0.0339 C.ar    1  UNL1       -0.0353
     10 C           4.2435    4.8634   -0.0344 C.ar    1  UNL1       -0.0577
     11 C           5.5435    5.3747   -0.0344 C.ar    1  UNL1       -0.0615
     12 C           6.6541    4.5137   -0.0341 C.ar    1  UNL1       -0.0612
     13 C           6.4847    3.1261   -0.0349 C.ar    1  UNL1       -0.0538
     14 C           5.1954    2.6179   -0.0348 C.ar    1  UNL1       -0.0141
     15 H           0.6750   -0.9477   -0.0340 H       1  UNL1        0.0278
     16 H           0.6929    0.5778   -0.9270 H       1  UNL1        0.0278
     17 H           0.6931    0.5775    0.8596 H       1  UNL1        0.0278
     18 H           2.7650   -2.0823   -0.0318 H       1  UNL1        0.0620
     19 H           5.2270   -2.0871   -0.0311 H       1  UNL1        0.0618
     20 H           6.5040    0.0406   -0.0345 H       1  UNL1        0.0624
     21 H           2.2230    2.8920    0.8798 H       1  UNL1        0.0362
     22 H           2.2114    2.8960   -0.9303 H       1  UNL1        0.0362
     23 H           3.3872    5.5298   -0.0345 H       1  UNL1        0.0621
     24 H           5.7004    6.4509   -0.0341 H       1  UNL1        0.0618
     25 H           7.6579    4.9331   -0.0332 H       1  UNL1        0.0618
     26 H           7.3483    2.4695   -0.0349 H       1  UNL1        0.0624
@<TRIPOS>BOND
     1     1     2    1
     2     2     3   ar
     3     3     4   ar
     4     4     5   ar
     5     5     6   ar
     6     6     7   ar
     7     2     7   ar
     8     7     8    1
     9     8     9    1
    10     9    10   ar
    11    10    11   ar
    12    11    12   ar
    13    12    13   ar
    14    13    14   ar
    15     9    14   ar
    16     6    14    1
    17     1    15    1
    18     1    16    1
    19     1    17    1
    20     3    18    1
    21     4    19    1
    22     5    20    1
    23     8    21    1
    24     8    22    1
    25    10    23    1
    26    11    24    1
    27    12    25    1
    28    13    26    1
