@<TRIPOS>MOLECULE
*****
 30 31 0 0 0
SMALL
GASTEIGER

@<TRIPOS>ATOM
      1 C           0.8986    0.0034   -0.2290 C.3     1  UNL1       -0.0636
      2 C           2.4223   -0.0114   -0.1316 C.3     1  UNL1       -0.0293
      3 C           3.0006   -0.5347    1.2295 C.3     1  UNL1        0.1471
      4 C           4.5334   -0.4114    1.0797 C.2     1  UNL1        0.2336
      5 O           5.1982    0.5644    1.4265 O.2     1  UNL1       -0.2743
      6 N           5.1713   -1.3943    0.3704 N.am    1  UNL1       -0.2986
      7 C           4.7592   -2.7478    0.4876 C.3     1  UNL1        0.0780
      8 N           3.3475   -2.8926    0.5384 N.am    1  UNL1       -0.2986
      9 C           2.5908   -2.0210    1.2796 C.2     1  UNL1        0.2336
     10 O           1.5661   -2.4571    1.8028 O.2     1  UNL1       -0.2743
     11 C           2.5495    0.2968    2.4527 C.ar    1  UNL1       -0.0237
     12 C           2.3497   -0.2818    3.7187 C.ar    1  UNL1       -0.0571
     13 C           2.0151    0.5009    4.8304 C.ar    1  UNL1       -0.0615
     14 C           1.8906    1.8821    4.7090 C.ar    1  UNL1       -0.0617
     15 C           2.0928    2.4816    3.4736 C.ar    1  UNL1       -0.0615
     16 C           2.4267    1.6994    2.3637 C.ar    1  UNL1       -0.0571
     17 H           0.5975    0.3708   -1.2154 H       1  UNL1        0.0230
     18 H           0.4457    0.6572    0.5210 H       1  UNL1        0.0230
     19 H           0.4763   -0.9990   -0.1147 H       1  UNL1        0.0230
     20 H           2.7997    0.9951   -0.3499 H       1  UNL1        0.0280
     21 H           2.7961   -0.6325   -0.9578 H       1  UNL1        0.0280
     22 H           6.1676   -1.2241    0.3102 H       1  UNL1        0.1502
     23 H           5.1834   -3.1644    1.4066 H       1  UNL1        0.0670
     24 H           5.1404   -3.3048   -0.3727 H       1  UNL1        0.0670
     25 H           2.9871   -3.8381    0.5822 H       1  UNL1        0.1502
     26 H           2.4464   -1.3542    3.8721 H       1  UNL1        0.0621
     27 H           1.8619    0.0282    5.7979 H       1  UNL1        0.0618
     28 H           1.6476    2.4879    5.5776 H       1  UNL1        0.0618
     29 H           2.0143    3.5598    3.3730 H       1  UNL1        0.0618
     30 H           2.6131    2.2191    1.4269 H       1  UNL1        0.0621
@<TRIPOS>BOND
     1     1     2    1
     2     2     3    1
     3     3     4    1
     4     4     5    2
     5     4     6   am
     6     6     7    1
     7     7     8    1
     8     8     9   am
     9     3     9    1
    10     9    10    2
    11     3    11    1
    12    11    12   ar
    13    12    13   ar
    14    13    14   ar
    15    14    15   ar
    16    15    16   ar
    17    11    16   ar
    18     1    17    1
    19     1    18    1
    20     1    19    1
    21     2    20    1
    22     2    21    1
    23     6    22    1
    24     7    23    1
    25     7    24    1
    26     8    25    1
    27    12    26    1
    28    13    27    1
    29    14    28    1
    30    15    29    1
    31    16    30    1
