@<TRIPOS>MOLECULE
*****
 18 19 0 0 0
SMALL
GASTEIGER

@<TRIPOS>ATOM
      1 CL          3.2286    0.4273   -0.0108 Cl      1  UNL1       -0.0835
      2 C           1.5715   -0.0381   -0.0099 C.ar    1  UNL1        0.0416
      3 C           1.2357   -1.3886   -0.0075 C.ar    1  UNL1       -0.0428
      4 C          -0.1078   -1.7672   -0.0026 C.ar    1  UNL1       -0.0527
      5 C          -1.1246   -0.7991   -0.0014 C.ar    1  UNL1       -0.0178
      6 C          -2.4796   -1.1654    0.0068 C.ar    1  UNL1       -0.0540
      7 C          -3.4811   -0.1937    0.0044 C.ar    1  UNL1       -0.0612
      8 C          -3.1413    1.1558   -0.0059 C.ar    1  UNL1       -0.0612
      9 C          -1.7986    1.5382   -0.0111 C.ar    1  UNL1       -0.0540
     10 C          -0.7781    0.5733   -0.0080 C.ar    1  UNL1       -0.0165
     11 C           0.5777    0.9402   -0.0113 C.ar    1  UNL1       -0.0357
     12 H           2.0105   -2.1503   -0.0087 H       1  UNL1        0.0632
     13 H          -0.3564   -2.8262   -0.0002 H       1  UNL1        0.0624
     14 H          -2.7659   -2.2149    0.0151 H       1  UNL1        0.0624
     15 H          -4.5263   -0.4919    0.0102 H       1  UNL1        0.0618
     16 H          -3.9214    1.9129   -0.0095 H       1  UNL1        0.0618
     17 H          -1.5547    2.5982   -0.0180 H       1  UNL1        0.0624
     18 H           0.8602    1.9899   -0.0142 H       1  UNL1        0.0638
@<TRIPOS>BOND
     1     1     2    1
     2     2     3   ar
     3     3     4   ar
     4     4     5   ar
     5     5     6   ar
     6     6     7   ar
     7     7     8   ar
     8     8     9   ar
     9     9    10   ar
    10     5    10   ar
    11    10    11   ar
    12     2    11   ar
    13     3    12    1
    14     4    13    1
    15     6    14    1
    16     7    15    1
    17     8    16    1
    18     9    17    1
    19    11    18    1
