@<TRIPOS>MOLECULE
*****
 23 22 0 0 0
SMALL
GASTEIGER

@<TRIPOS>ATOM
      1 C           0.9160   -0.0683    0.0904 C.3     1  UNL1       -0.0653
      2 C           2.4360   -0.0639    0.0757 C.3     1  UNL1       -0.0559
      3 C           2.9758    0.4770   -1.2469 C.3     1  UNL1       -0.0533
      4 C           4.5045    0.4838   -1.2638 C.3     1  UNL1       -0.0530
      5 C           5.0385    1.0281   -2.5893 C.3     1  UNL1       -0.0524
      6 C           6.5677    1.0384   -2.6100 C.3     1  UNL1       -0.0442
      7 C           7.0944    1.5825   -3.9371 C.3     1  UNL1       -0.0003
      8 I           9.2312    1.5921   -3.9538 I       1  UNL1       -0.0854
      9 H           0.5471   -0.4587    1.0435 H       1  UNL1        0.0230
     10 H           0.5182   -0.6978   -0.7122 H       1  UNL1        0.0230
     11 H           0.5204    0.9441   -0.0387 H       1  UNL1        0.0230
     12 H           2.8015   -1.0846    0.2384 H       1  UNL1        0.0263
     13 H           2.8029    0.5492    0.9071 H       1  UNL1        0.0263
     14 H           2.6023    1.4958   -1.4075 H       1  UNL1        0.0265
     15 H           2.6024   -0.1378   -2.0755 H       1  UNL1        0.0265
     16 H           4.8790   -0.5342   -1.1059 H       1  UNL1        0.0265
     17 H           4.8788    1.0982   -0.4359 H       1  UNL1        0.0265
     18 H           4.6618    2.0463   -2.7468 H       1  UNL1        0.0266
     19 H           4.6635    0.4130   -3.4165 H       1  UNL1        0.0266
     20 H           6.9405    0.0193   -2.4471 H       1  UNL1        0.0273
     21 H           6.9386    1.6511   -1.7788 H       1  UNL1        0.0273
     22 H           6.7249    2.6014   -4.0978 H       1  UNL1        0.0373
     23 H           6.7270    0.9681   -4.7666 H       1  UNL1        0.0373
@<TRIPOS>BOND
     1     1     2    1
     2     2     3    1
     3     3     4    1
     4     4     5    1
     5     5     6    1
     6     6     7    1
     7     7     8    1
     8     1     9    1
     9     1    10    1
    10     1    11    1
    11     2    12    1
    12     2    13    1
    13     3    14    1
    14     3    15    1
    15     4    16    1
    16     4    17    1
    17     5    18    1
    18     5    19    1
    19     6    20    1
    20     6    21    1
    21     7    22    1
    22     7    23    1
