@<TRIPOS>MOLECULE
*****
 16 15 0 0 0
SMALL
GASTEIGER

@<TRIPOS>ATOM
      1 C           1.0662   -0.0449    0.0159 C.3     1  UNL1       -0.0653
      2 C           2.5865   -0.0532    0.0058 C.3     1  UNL1       -0.0555
      3 C           3.1230   -0.7931   -1.2172 C.3     1  UNL1       -0.0469
      4 C           4.6466   -0.8065   -1.2396 C.3     1  UNL1        0.0028
      5 C           5.1920   -1.5362   -2.4424 C.2     1  UNL1        0.1203
      6 O           4.5060   -2.0648   -3.3110 O.2     1  UNL1       -0.3010
      7 H           0.6943    0.4874    0.8963 H       1  UNL1        0.0230
      8 H           0.6702   -1.0654    0.0415 H       1  UNL1        0.0230
      9 H           0.6725    0.4532   -0.8758 H       1  UNL1        0.0230
     10 H           2.9517   -0.5314    0.9221 H       1  UNL1        0.0263
     11 H           2.9537    0.9796    0.0090 H       1  UNL1        0.0263
     12 H           2.7452   -0.3176   -2.1311 H       1  UNL1        0.0269
     13 H           2.7451   -1.8233   -1.2202 H       1  UNL1        0.0269
     14 H           5.0397   -1.3017   -0.3452 H       1  UNL1        0.0339
     15 H           5.0395    0.2157   -1.2655 H       1  UNL1        0.0339
     16 H           6.2935   -1.5723   -2.5043 H       1  UNL1        0.1026
@<TRIPOS>BOND
     1     1     2    1
     2     2     3    1
     3     3     4    1
     4     4     5    1
     5     5     6    2
     6     1     7    1
     7     1     8    1
     8     1     9    1
     9     2    10    1
    10     2    11    1
    11     3    12    1
    12     3    13    1
    13     4    14    1
    14     4    15    1
    15     5    16    1
