@<TRIPOS>MOLECULE
*****
 9 9 0 0 0
SMALL
GASTEIGER

@<TRIPOS>ATOM
      1 C           1.3875   -0.7056    0.0015 C.ar    1  UNL1       -0.0547
      2 C           1.3830    0.7196    0.0014 C.ar    1  UNL1       -0.0547
      3 C           0.1041    1.2320   -0.0049 C.ar    1  UNL1       -0.0243
      4 S          -1.0832   -0.0009   -0.0100 S.2     1  UNL1       -0.1051
      5 C           0.1120   -1.2262   -0.0052 C.ar    1  UNL1       -0.0243
      6 H           2.2807   -1.3182    0.0059 H       1  UNL1        0.0623
      7 H           2.2721    1.3379    0.0054 H       1  UNL1        0.0623
      8 H          -0.1936    2.2716   -0.0067 H       1  UNL1        0.0693
      9 H          -0.1791   -2.2676   -0.0073 H       1  UNL1        0.0693
@<TRIPOS>BOND
     1     1     2   ar
     2     2     3   ar
     3     3     4   ar
     4     4     5   ar
     5     1     5   ar
     6     1     6    1
     7     2     7    1
     8     3     8    1
     9     5     9    1
