@<TRIPOS>MOLECULE
*****
 43 44 0 0 0
SMALL
GASTEIGER

@<TRIPOS>ATOM
      1 C           1.1786    0.6218    2.2253 C.3     1  UNL1        0.0820
      2 O           2.6002    0.5779    2.0639 O.3     1  UNL1       -0.4646
      3 C           3.0356    0.9941    0.8498 C.2     1  UNL1        0.3373
      4 O           2.3074    1.3954   -0.0444 O.2     1  UNL1       -0.2452
      5 C           4.5220    0.9260    0.7792 C.2     1  UNL1        0.0652
      6 C           5.1749    0.8492   -0.4075 C.2     1  UNL1        0.0157
      7 C           4.5613    0.6738   -1.7776 C.3     1  UNL1       -0.0260
      8 N           6.5598    0.9405   -0.4292 N.pl3   1  UNL1       -0.3207
      9 C           7.3293    1.3964    0.6303 C.2     1  UNL1        0.0157
     10 C           6.7826    1.5048    1.8648 C.2     1  UNL1        0.0652
     11 C           5.3200    1.0465    2.1003 C.3     1  UNL1        0.0528
     12 C           5.3185   -0.2936    2.8693 C.ar    1  UNL1       -0.0049
     13 C           5.9753   -1.3993    2.2752 C.ar    1  UNL1       -0.0555
     14 C           6.0780   -2.6350    2.9175 C.ar    1  UNL1       -0.0613
     15 C           5.5281   -2.8118    4.1794 C.ar    1  UNL1       -0.0596
     16 C           4.8406   -1.7619    4.7833 C.ar    1  UNL1       -0.0312
     17 C           4.7202   -0.5194    4.1292 C.ar    1  UNL1        0.1303
     18 N           3.8776    0.4666    4.8056 N.pl3   1  UNL1        0.0567
     19 O           4.3176    1.6080    4.9742 O.2     1  UNL1       -0.1261
     20 O           2.7752    0.0718    5.2144 O.2     1  UNL1       -0.1261
     21 C           7.5883    2.0408    2.9984 C.2     1  UNL1        0.3373
     22 O           8.7474    2.4143    2.9264 O.2     1  UNL1       -0.2452
     23 O           6.8582    2.0664    4.1365 O.3     1  UNL1       -0.4646
     24 C           7.5494    2.6017    5.2689 C.3     1  UNL1        0.0820
     25 C           8.7634    1.7267    0.2920 C.3     1  UNL1       -0.0260
     26 H           0.9324    0.2135    3.2088 H       1  UNL1        0.0661
     27 H           0.6869    0.0048    1.4669 H       1  UNL1        0.0661
     28 H           0.8213    1.6550    2.1796 H       1  UNL1        0.0661
     29 H           3.4770    0.5751   -1.7952 H       1  UNL1        0.0290
     30 H           4.9609   -0.2354   -2.2426 H       1  UNL1        0.0290
     31 H           4.8297    1.5224   -2.4172 H       1  UNL1        0.0290
     32 H           6.9931    0.9688   -1.3506 H       1  UNL1        0.1516
     33 H           4.8290    1.8430    2.6689 H       1  UNL1        0.0452
     34 H           6.4237   -1.3082    1.2855 H       1  UNL1        0.0621
     35 H           6.5935   -3.4572    2.4253 H       1  UNL1        0.0618
     36 H           5.6186   -3.7702    4.6846 H       1  UNL1        0.0618
     37 H           4.3885   -1.9205    5.7613 H       1  UNL1        0.0640
     38 H           6.8626    2.6044    6.1195 H       1  UNL1        0.0661
     39 H           7.8657    3.6319    5.0769 H       1  UNL1        0.0661
     40 H           8.4088    1.9723    5.5195 H       1  UNL1        0.0661
     41 H           8.9930    1.5028   -0.7558 H       1  UNL1        0.0290
     42 H           9.4540    1.1269    0.8939 H       1  UNL1        0.0290
     43 H           8.9645    2.7929    0.4382 H       1  UNL1        0.0290
@<TRIPOS>BOND
     1     1     2    1
     2     2     3    1
     3     3     4    2
     4     3     5    1
     5     5     6    2
     6     6     7    1
     7     6     8    1
     8     8     9    1
     9     9    10    2
    10    10    11    1
    11     5    11    1
    12    11    12    1
    13    12    13   ar
    14    13    14   ar
    15    14    15   ar
    16    15    16   ar
    17    16    17   ar
    18    12    17   ar
    19    17    18    1
    20    18    19    2
    21    18    20    2
    22    10    21    1
    23    21    22    2
    24    21    23    1
    25    23    24    1
    26     9    25    1
    27     1    26    1
    28     1    27    1
    29     1    28    1
    30     7    29    1
    31     7    30    1
    32     7    31    1
    33     8    32    1
    34    11    33    1
    35    13    34    1
    36    14    35    1
    37    15    36    1
    38    16    37    1
    39    24    38    1
    40    24    39    1
    41    24    40    1
    42    25    41    1
    43    25    42    1
    44    25    43    1
