@<TRIPOS>MOLECULE
*****
 16 16 0 0 0
SMALL
GASTEIGER

@<TRIPOS>ATOM
      1 C          -1.7501   -1.6148    0.0032 C.3     1  UNL1       -0.0363
      2 C          -0.5024   -0.7820    0.0004 C.ar    1  UNL1       -0.0090
      3 C           0.7614   -1.3866   -0.0072 C.ar    1  UNL1       -0.0554
      4 C           1.9197   -0.6063   -0.0040 C.ar    1  UNL1       -0.0613
      5 C           1.8256    0.7848    0.0063 C.ar    1  UNL1       -0.0583
      6 C           0.5734    1.3993    0.0087 C.ar    1  UNL1       -0.0199
      7 C          -0.5784    0.6141    0.0048 C.ar    1  UNL1        0.1197
      8 O          -1.8147    1.1964    0.0057 O.3     1  UNL1       -0.5065
      9 H          -1.5196   -2.6848    0.0149 H       1  UNL1        0.0279
     10 H          -2.3436   -1.4093   -0.8936 H       1  UNL1        0.0279
     11 H          -2.3493   -1.3933    0.8926 H       1  UNL1        0.0279
     12 H           0.8516   -2.4701   -0.0148 H       1  UNL1        0.0621
     13 H           2.8953   -1.0855   -0.0089 H       1  UNL1        0.0618
     14 H           2.7291    1.3887    0.0126 H       1  UNL1        0.0619
     15 H           0.5159    2.4832    0.0154 H       1  UNL1        0.0654
     16 H          -1.7022    2.1603   -0.0092 H       1  UNL1        0.2921
@<TRIPOS>BOND
     1     1     2    1
     2     2     3   ar
     3     3     4   ar
     4     4     5   ar
     5     5     6   ar
     6     6     7   ar
     7     2     7   ar
     8     7     8    1
     9     1     9    1
    10     1    10    1
    11     1    11    1
    12     3    12    1
    13     4    13    1
    14     5    14    1
    15     6    15    1
    16     8    16    1
