@<TRIPOS>MOLECULE
*****
 51 55 0 0 0
SMALL
GASTEIGER

@<TRIPOS>ATOM
      1 C           1.2165   -0.2493    0.5359 C.3     1  UNL1        0.0790
      2 O           2.3679    0.1298   -0.2311 O.3     1  UNL1       -0.4913
      3 C           2.4584   -0.6307   -1.3628 C.ar    1  UNL1        0.1650
      4 C           2.6910    0.0136   -2.5512 C.ar    1  UNL1        0.0257
      5 C           2.4960   -0.7031   -3.7187 C.ar    1  UNL1        0.1283
      6 O           3.1362   -0.1849   -4.8072 O.3     1  UNL1       -0.4879
      7 C           2.5735   -0.4844   -6.0655 C.3     1  UNL1        0.1273
      8 C           1.8463   -1.8072   -6.2177 C.3     1  UNL1        0.1478
      9 O           2.5311   -3.0890   -6.3449 O.3     1  UNL1       -0.4833
     10 C           1.5896   -4.0067   -6.7812 C.ar    1  UNL1        0.1383
     11 C           1.8735   -5.2323   -7.3252 C.ar    1  UNL1        0.0404
     12 C           2.7611   -6.2701   -6.7846 C.3     1  UNL1        0.0204
     13 C           2.0528   -7.5099   -7.3679 C.3     1  UNL1        0.1249
     14 O           1.3844   -7.0854   -8.5998 O.3     1  UNL1       -0.4838
     15 C           1.0400   -5.7906   -8.2866 C.ar    1  UNL1        0.1282
     16 C          -0.1470   -5.1980   -8.6592 C.ar    1  UNL1       -0.0187
     17 C          -0.5918   -4.1558   -7.8351 C.ar    1  UNL1       -0.0442
     18 C           0.2186   -3.6945   -6.7839 C.ar    1  UNL1        0.0603
     19 C          -0.1722   -2.8315   -5.6285 C.2     1  UNL1        0.1778
     20 O          -1.3761   -2.6874   -5.3987 O.2     1  UNL1       -0.2912
     21 C           0.9164   -1.9758   -5.0197 C.3     1  UNL1        0.0908
     22 C           1.7636   -1.9036   -3.7472 C.ar    1  UNL1        0.0122
     23 C           1.9288   -2.6672   -2.5698 C.ar    1  UNL1       -0.0088
     24 C           2.4333   -2.0198   -1.3925 C.ar    1  UNL1        0.1620
     25 O           2.9379   -2.7515   -0.3291 O.3     1  UNL1       -0.4914
     26 C           4.0013   -2.0615    0.3962 C.3     1  UNL1        0.0790
     27 C           3.0082   -8.6682   -7.5451 C.2     1  UNL1       -0.0395
     28 C           3.6375   -9.1688   -6.2706 C.3     1  UNL1       -0.0406
     29 C           3.2945   -9.2447   -8.7217 C.2     1  UNL1       -0.0962
     30 H           1.0208    0.5413    1.2676 H       1  UNL1        0.0660
     31 H           1.3870   -1.1758    1.0969 H       1  UNL1        0.0660
     32 H           0.3219   -0.3582   -0.0919 H       1  UNL1        0.0660
     33 H           2.9999    1.0459   -2.5794 H       1  UNL1        0.0692
     34 H           3.3304   -0.3463   -6.8411 H       1  UNL1        0.0734
     35 H           1.8175    0.3034   -6.2082 H       1  UNL1        0.0734
     36 H           1.3092   -1.6321   -7.1691 H       1  UNL1        0.0778
     37 H           2.7044   -6.3063   -5.6895 H       1  UNL1        0.0355
     38 H           3.7961   -6.1534   -7.1133 H       1  UNL1        0.0355
     39 H           1.2455   -7.8527   -6.6955 H       1  UNL1        0.0784
     40 H          -0.7592   -5.5987   -9.4615 H       1  UNL1        0.0654
     41 H          -1.5662   -3.7081   -8.0109 H       1  UNL1        0.0627
     42 H           0.3374   -1.0501   -4.9058 H       1  UNL1        0.0468
     43 H           1.7525   -3.7381   -2.5373 H       1  UNL1        0.0659
     44 H           4.5995   -2.7904    0.9519 H       1  UNL1        0.0660
     45 H           3.5990   -1.3787    1.1580 H       1  UNL1        0.0660
     46 H           4.6901   -1.5126   -0.2647 H       1  UNL1        0.0660
     47 H           3.0903   -8.8194   -5.3875 H       1  UNL1        0.0275
     48 H           4.6650   -8.8018   -6.1904 H       1  UNL1        0.0275
     49 H           3.6407  -10.2627   -6.2316 H       1  UNL1        0.0275
     50 H           2.8456   -8.8996   -9.6497 H       1  UNL1        0.0535
     51 H           3.9945  -10.0731   -8.7884 H       1  UNL1        0.0535
@<TRIPOS>BOND
     1     1     2    1
     2     2     3    1
     3     3     4   ar
     4     4     5   ar
     5     5     6    1
     6     6     7    1
     7     7     8    1
     8     8     9    1
     9     9    10    1
    10    10    11   ar
    11    11    12    1
    12    12    13    1
    13    13    14    1
    14    14    15    1
    15    11    15   ar
    16    15    16   ar
    17    16    17   ar
    18    17    18   ar
    19    10    18   ar
    20    18    19    1
    21    19    20    2
    22    19    21    1
    23     8    21    1
    24    21    22    1
    25     5    22   ar
    26    22    23   ar
    27    23    24   ar
    28     3    24   ar
    29    24    25    1
    30    25    26    1
    31    13    27    1
    32    27    28    1
    33    27    29    2
    34     1    30    1
    35     1    31    1
    36     1    32    1
    37     4    33    1
    38     7    34    1
    39     7    35    1
    40     8    36    1
    41    12    37    1
    42    12    38    1
    43    13    39    1
    44    16    40    1
    45    17    41    1
    46    21    42    1
    47    23    43    1
    48    26    44    1
    49    26    45    1
    50    26    46    1
    51    28    47    1
    52    28    48    1
    53    28    49    1
    54    29    50    1
    55    29    51    1
