@<TRIPOS>MOLECULE
*****
 29 28 0 0 0
SMALL
GASTEIGER

@<TRIPOS>ATOM
      1 C           1.0072   -0.1558   -0.0134 C.3     1  UNL1       -0.0627
      2 C           2.5397   -0.1609   -0.0048 C.3     1  UNL1       -0.0467
      3 C           3.0587   -0.5620   -1.3855 C.3     1  UNL1       -0.0627
      4 C           3.0421    1.2260    0.4388 C.3     1  UNL1       -0.0502
      5 C           4.5718    1.3628    0.5175 C.3     1  UNL1       -0.0479
      6 C           5.0788    2.7677    0.9530 C.3     1  UNL1       -0.0377
      7 C           4.6093    3.1149    2.3753 C.3     1  UNL1       -0.0601
      8 C           6.6200    2.7646    0.9386 C.3     1  UNL1       -0.0601
      9 C           4.5924    3.8516   -0.0251 C.3     1  UNL1       -0.0601
     10 H           0.6135   -1.1394   -0.2918 H       1  UNL1        0.0232
     11 H           0.6164    0.5770   -0.7280 H       1  UNL1        0.0232
     12 H           0.6120    0.0937    0.9770 H       1  UNL1        0.0232
     13 H           2.8765   -0.9097    0.7224 H       1  UNL1        0.0295
     14 H           2.8249    0.2029   -2.1352 H       1  UNL1        0.0232
     15 H           2.6071   -1.5043   -1.7123 H       1  UNL1        0.0232
     16 H           4.1429   -0.7110   -1.3764 H       1  UNL1        0.0232
     17 H           2.6103    1.4387    1.4223 H       1  UNL1        0.0268
     18 H           2.6392    1.9726   -0.2534 H       1  UNL1        0.0268
     19 H           5.0038    1.1365   -0.4645 H       1  UNL1        0.0270
     20 H           4.9592    0.6048    1.2101 H       1  UNL1        0.0270
     21 H           4.9883    2.3901    3.1042 H       1  UNL1        0.0235
     22 H           3.5185    3.1361    2.4559 H       1  UNL1        0.0235
     23 H           4.9714    4.1065    2.6770 H       1  UNL1        0.0235
     24 H           7.0237    2.0440    1.6585 H       1  UNL1        0.0235
     25 H           7.0198    3.7518    1.1987 H       1  UNL1        0.0235
     26 H           7.0081    2.5017   -0.0516 H       1  UNL1        0.0235
     27 H           3.5022    3.9476   -0.0230 H       1  UNL1        0.0235
     28 H           4.9120    3.6303   -1.0496 H       1  UNL1        0.0235
     29 H           4.9986    4.8360    0.2434 H       1  UNL1        0.0235
@<TRIPOS>BOND
     1     1     2    1
     2     2     3    1
     3     2     4    1
     4     4     5    1
     5     5     6    1
     6     6     7    1
     7     6     8    1
     8     6     9    1
     9     1    10    1
    10     1    11    1
    11     1    12    1
    12     2    13    1
    13     3    14    1
    14     3    15    1
    15     3    16    1
    16     4    17    1
    17     4    18    1
    18     5    19    1
    19     5    20    1
    20     7    21    1
    21     7    22    1
    22     7    23    1
    23     8    24    1
    24     8    25    1
    25     8    26    1
    26     9    27    1
    27     9    28    1
    28     9    29    1
