@<TRIPOS>MOLECULE
*****
 15 15 0 0 0
SMALL
GASTEIGER

@<TRIPOS>ATOM
      1 N          -2.8396    0.0027    0.1910 N.pl3   1  UNL1       -0.3580
      2 C          -1.4522    0.0030    0.0065 C.ar    1  UNL1        0.0248
      3 C          -0.7402   -1.2005    0.0269 C.ar    1  UNL1       -0.0376
      4 C           0.6575   -1.2073   -0.0117 C.ar    1  UNL1       -0.0184
      5 C           1.3449    0.0005   -0.0294 C.ar    1  UNL1        0.1170
      6 O           2.7071    0.0439   -0.0510 O.3     1  UNL1       -0.5068
      7 C           0.6572    1.2061   -0.0019 C.ar    1  UNL1       -0.0184
      8 C          -0.7390    1.2048    0.0387 C.ar    1  UNL1       -0.0376
      9 H          -3.3004   -0.8347   -0.1500 H       1  UNL1        0.1423
     10 H          -3.2957    0.8514   -0.1285 H       1  UNL1        0.1423
     11 H          -1.2715   -2.1471    0.0763 H       1  UNL1        0.0637
     12 H           1.1832   -2.1562   -0.0097 H       1  UNL1        0.0655
     13 H           3.0451   -0.8661   -0.0252 H       1  UNL1        0.2921
     14 H           1.2039    2.1448    0.0085 H       1  UNL1        0.0655
     15 H          -1.2645    2.1536    0.0967 H       1  UNL1        0.0637
@<TRIPOS>BOND
     1     1     2    1
     2     2     3   ar
     3     3     4   ar
     4     4     5   ar
     5     5     6    1
     6     5     7   ar
     7     7     8   ar
     8     2     8   ar
     9     1     9    1
    10     1    10    1
    11     3    11    1
    12     4    12    1
    13     6    13    1
    14     7    14    1
    15     8    15    1
