@<TRIPOS>MOLECULE
*****
 40 40 0 0 0
SMALL
GASTEIGER

@<TRIPOS>ATOM
      1 C           3.9758    2.3914    2.9653 C.3     1  UNL1       -0.0410
      2 C           4.5348    1.1289    2.3486 C.3     1  UNL1        0.0548
      3 O           5.2584    1.4538    1.1596 O.3     1  UNL1       -0.3020
      4 P           5.8921    0.0647    0.3460 P.3     1  UNL1        0.3625
      5 S           4.1626   -0.0368   -0.7228 S.2     1  UNL1        0.0363
      6 O           7.0128    1.0796   -0.3219 O.3     1  UNL1       -0.3020
      7 C           7.9668    1.6754    0.5477 C.3     1  UNL1        0.0548
      8 C           8.8812    2.5675   -0.2661 C.3     1  UNL1       -0.0410
      9 O           6.5257   -1.3243   -0.4675 O.3     1  UNL1       -0.4079
     10 C           7.2178   -1.2762   -1.6638 C.ar    1  UNL1        0.2256
     11 C           6.9285   -0.3886   -2.6799 C.ar    1  UNL1        0.0214
     12 C           7.6709   -0.4828   -3.8339 C.ar    1  UNL1        0.0453
     13 C           7.4114    0.4319   -4.9901 C.3     1  UNL1       -0.0221
     14 N           8.6619   -1.3828   -3.9681 N.ar    1  UNL1       -0.2367
     15 C           8.8864   -2.2113   -2.9304 C.ar    1  UNL1        0.1356
     16 N           8.1900   -2.2022   -1.7724 N.ar    1  UNL1       -0.1974
     17 C          10.0361   -3.1771   -3.0923 C.3     1  UNL1        0.0134
     18 C          11.1206   -2.9026   -2.0526 C.3     1  UNL1       -0.0557
     19 C           9.5655   -4.6282   -3.0462 C.3     1  UNL1       -0.0557
     20 H           3.4895    2.1708    3.9201 H       1  UNL1        0.0252
     21 H           3.2392    2.8521    2.2991 H       1  UNL1        0.0252
     22 H           4.7688    3.1265    3.1300 H       1  UNL1        0.0252
     23 H           3.7129    0.4433    2.1213 H       1  UNL1        0.0562
     24 H           5.2149    0.6291    3.0452 H       1  UNL1        0.0562
     25 H           8.5371    0.8926    1.0554 H       1  UNL1        0.0562
     26 H           7.4643    2.2869    1.3045 H       1  UNL1        0.0562
     27 H           9.3768    1.9958   -1.0564 H       1  UNL1        0.0252
     28 H           9.6413    3.0301    0.3703 H       1  UNL1        0.0252
     29 H           8.3071    3.3619   -0.7558 H       1  UNL1        0.0252
     30 H           6.1616    0.3678   -2.6063 H       1  UNL1        0.0689
     31 H           6.5570    1.0911   -4.8014 H       1  UNL1        0.0293
     32 H           7.1892   -0.1570   -5.8848 H       1  UNL1        0.0293
     33 H           8.2879    1.0586   -5.1802 H       1  UNL1        0.0293
     34 H          10.4824   -3.0105   -4.0823 H       1  UNL1        0.0374
     35 H          10.7538   -3.0610   -1.0326 H       1  UNL1        0.0236
     36 H          11.4733   -1.8673   -2.1230 H       1  UNL1        0.0236
     37 H          11.9815   -3.5610   -2.2085 H       1  UNL1        0.0236
     38 H           9.1228   -4.8815   -2.0772 H       1  UNL1        0.0236
     39 H          10.4051   -5.3092   -3.2233 H       1  UNL1        0.0236
     40 H           8.8127   -4.8189   -3.8195 H       1  UNL1        0.0236
@<TRIPOS>BOND
     1     1     2    1
     2     2     3    1
     3     3     4    1
     4     4     5    2
     5     4     6    1
     6     6     7    1
     7     7     8    1
     8     4     9    1
     9     9    10    1
    10    10    11   ar
    11    11    12   ar
    12    12    13    1
    13    12    14   ar
    14    14    15   ar
    15    15    16   ar
    16    10    16   ar
    17    15    17    1
    18    17    18    1
    19    17    19    1
    20     1    20    1
    21     1    21    1
    22     1    22    1
    23     2    23    1
    24     2    24    1
    25     7    25    1
    26     7    26    1
    27     8    27    1
    28     8    28    1
    29     8    29    1
    30    11    30    1
    31    13    31    1
    32    13    32    1
    33    13    33    1
    34    17    34    1
    35    18    35    1
    36    18    36    1
    37    18    37    1
    38    19    38    1
    39    19    39    1
    40    19    40    1
