@<TRIPOS>MOLECULE
*****
 36 35 0 0 0
SMALL
GASTEIGER

@<TRIPOS>ATOM
      1 C           0.9541   -0.0951   -0.1313 C.3     1  UNL1       -0.0653
      2 C           2.4738   -0.0785   -0.1110 C.3     1  UNL1       -0.0559
      3 C           3.0063    1.3272    0.1588 C.3     1  UNL1       -0.0533
      4 C           4.5336    1.3493    0.1774 C.3     1  UNL1       -0.0531
      5 C           5.0606    2.7592    0.4477 C.3     1  UNL1       -0.0531
      6 C           6.5871    2.7813    0.4633 C.3     1  UNL1       -0.0531
      7 C           7.1245    4.1874    0.7331 C.3     1  UNL1       -0.0530
      8 C           8.6531    4.1862    0.7450 C.3     1  UNL1       -0.0507
      9 C           9.2197    5.5809    1.0224 C.3     1  UNL1       -0.0271
     10 C          10.7522    5.5754    1.0397 C.3     1  UNL1        0.0524
     11 C          11.3194    6.9643    1.2928 C.3     1  UNL1       -0.0389
     12 O          11.2274    4.7005    2.0599 O.3     1  UNL1       -0.3921
     13 H           0.5884   -1.1082   -0.3251 H       1  UNL1        0.0230
     14 H           0.5656    0.5625   -0.9154 H       1  UNL1        0.0230
     15 H           0.5455    0.2360    0.8289 H       1  UNL1        0.0230
     16 H           2.8517   -0.4425   -1.0732 H       1  UNL1        0.0263
     17 H           2.8324   -0.7683    0.6612 H       1  UNL1        0.0263
     18 H           2.6228    1.6878    1.1213 H       1  UNL1        0.0265
     19 H           2.6393    2.0146   -0.6131 H       1  UNL1        0.0265
     20 H           4.9196    0.9904   -0.7855 H       1  UNL1        0.0265
     21 H           4.9040    0.6636    0.9498 H       1  UNL1        0.0265
     22 H           4.6768    3.1168    1.4111 H       1  UNL1        0.0265
     23 H           4.6895    3.4452   -0.3236 H       1  UNL1        0.0265
     24 H           6.9691    2.4216   -0.5002 H       1  UNL1        0.0265
     25 H           6.9559    2.0940    1.2336 H       1  UNL1        0.0265
     26 H           6.7467    4.5472    1.6977 H       1  UNL1        0.0265
     27 H           6.7595    4.8777   -0.0369 H       1  UNL1        0.0265
     28 H           9.0266    3.8265   -0.2217 H       1  UNL1        0.0266
     29 H           9.0045    3.4823    1.5085 H       1  UNL1        0.0266
     30 H           8.8407    5.9262    1.9929 H       1  UNL1        0.0290
     31 H           8.8611    6.2831    0.2600 H       1  UNL1        0.0290
     32 H          11.1337    5.1994    0.0842 H       1  UNL1        0.0590
     33 H          10.9467    7.3750    2.2376 H       1  UNL1        0.0254
     34 H          11.0567    7.6536    0.4845 H       1  UNL1        0.0254
     35 H          12.4103    6.9212    1.3770 H       1  UNL1        0.0254
     36 H          10.8713    5.0121    2.9094 H       1  UNL1        0.2098
@<TRIPOS>BOND
     1     1     2    1
     2     2     3    1
     3     3     4    1
     4     4     5    1
     5     5     6    1
     6     6     7    1
     7     7     8    1
     8     8     9    1
     9     9    10    1
    10    10    11    1
    11    10    12    1
    12     1    13    1
    13     1    14    1
    14     1    15    1
    15     2    16    1
    16     2    17    1
    17     3    18    1
    18     3    19    1
    19     4    20    1
    20     4    21    1
    21     5    22    1
    22     5    23    1
    23     6    24    1
    24     6    25    1
    25     7    26    1
    26     7    27    1
    27     8    28    1
    28     8    29    1
    29     9    30    1
    30     9    31    1
    31    10    32    1
    32    11    33    1
    33    11    34    1
    34    11    35    1
    35    12    36    1
