@<TRIPOS>MOLECULE
*****
 26 27 0 0 0
SMALL
GASTEIGER

@<TRIPOS>ATOM
      1 CL          1.1065    0.1602    0.0524 Cl      1  UNL1       -0.0698
      2 C           2.8399    0.0176    0.0307 C.2     1  UNL1        0.1148
      3 CL          3.6366    1.1101   -1.0657 Cl      1  UNL1       -0.0698
      4 C           3.5151   -0.8699    0.8019 C.2     1  UNL1        0.0189
      5 C           2.7668   -1.8014    1.6814 C.ar    1  UNL1       -0.0150
      6 C           2.3376   -3.0422    1.1918 C.ar    1  UNL1       -0.0526
      7 C           1.6174   -3.9141    2.0126 C.ar    1  UNL1       -0.0428
      8 C           1.3272   -3.5470    3.3265 C.ar    1  UNL1        0.0410
      9 CL          0.4274   -4.6125    4.3333 Cl      1  UNL1       -0.0835
     10 C           1.7609   -2.3201    3.8281 C.ar    1  UNL1       -0.0428
     11 C           2.4805   -1.4476    3.0074 C.ar    1  UNL1       -0.0526
     12 C           4.9983   -0.8964    0.7805 C.ar    1  UNL1       -0.0150
     13 C           5.7254   -0.0747    1.6538 C.ar    1  UNL1       -0.0526
     14 C           7.1224   -0.0960    1.6438 C.ar    1  UNL1       -0.0428
     15 C           7.7941   -0.9410    0.7624 C.ar    1  UNL1        0.0410
     16 CL          9.5142   -0.9661    0.7490 Cl      1  UNL1       -0.0835
     17 C           7.0825   -1.7645   -0.1076 C.ar    1  UNL1       -0.0428
     18 C           5.6847   -1.7438   -0.0999 C.ar    1  UNL1       -0.0526
     19 H           2.5554   -3.3392    0.1676 H       1  UNL1        0.0624
     20 H           1.2810   -4.8712    1.6229 H       1  UNL1        0.0632
     21 H           1.5371   -2.0354    4.8536 H       1  UNL1        0.0632
     22 H           2.8056   -0.4909    3.4073 H       1  UNL1        0.0624
     23 H           5.2114    0.5890    2.3453 H       1  UNL1        0.0624
     24 H           7.6772    0.5460    2.3227 H       1  UNL1        0.0632
     25 H           7.6079   -2.4242   -0.7937 H       1  UNL1        0.0632
     26 H           5.1399   -2.3888   -0.7848 H       1  UNL1        0.0624
@<TRIPOS>BOND
     1     1     2    1
     2     2     3    1
     3     2     4    2
     4     4     5    1
     5     5     6   ar
     6     6     7   ar
     7     7     8   ar
     8     8     9    1
     9     8    10   ar
    10    10    11   ar
    11     5    11   ar
    12     4    12    1
    13    12    13   ar
    14    13    14   ar
    15    14    15   ar
    16    15    16    1
    17    15    17   ar
    18    17    18   ar
    19    12    18   ar
    20     6    19    1
    21     7    20    1
    22    10    21    1
    23    11    22    1
    24    13    23    1
    25    14    24    1
    26    17    25    1
    27    18    26    1
