@<TRIPOS>MOLECULE
*****
 27 26 0 0 0
SMALL
GASTEIGER

@<TRIPOS>ATOM
      1 C           1.0356    0.1877    1.4897 C.3     1  UNL1       -0.0440
      2 C           2.5382    0.1734    1.5640 C.2     1  UNL1       -0.0796
      3 C           3.1637   -0.6877    2.6259 C.3     1  UNL1       -0.0440
      4 C           3.2698    0.9204    0.7124 C.2     1  UNL1       -0.0850
      5 C           4.7740    0.9535    0.6501 C.3     1  UNL1       -0.0308
      6 C           5.3687    2.0347    1.5606 C.3     1  UNL1       -0.0282
      7 C           6.8873    2.0603    1.5401 C.2     1  UNL1       -0.0693
      8 C           7.5918    0.8289    2.0464 C.3     1  UNL1       -0.0434
      9 C           7.5355    3.1600    1.1169 C.2     1  UNL1       -0.0235
     10 C           9.0092    3.2912    1.0764 C.2     1  UNL1        0.1431
     11 O           9.5443    4.3205    0.6848 O.2     1  UNL1       -0.2963
     12 H           0.5830   -0.4473    2.2581 H       1  UNL1        0.0274
     13 H           0.6968   -0.1867    0.5178 H       1  UNL1        0.0274
     14 H           0.6493    1.2017    1.6350 H       1  UNL1        0.0274
     15 H           2.4122   -1.1912    3.2412 H       1  UNL1        0.0274
     16 H           3.7753   -0.0802    3.3011 H       1  UNL1        0.0274
     17 H           3.7906   -1.4643    2.1768 H       1  UNL1        0.0274
     18 H           2.7570    1.5405   -0.0220 H       1  UNL1        0.0572
     19 H           5.0746    1.1332   -0.3897 H       1  UNL1        0.0310
     20 H           5.1759   -0.0334    0.9038 H       1  UNL1        0.0310
     21 H           5.0430    1.8836    2.5974 H       1  UNL1        0.0313
     22 H           4.9664    3.0119    1.2600 H       1  UNL1        0.0313
     23 H           6.8878    0.0636    2.3860 H       1  UNL1        0.0274
     24 H           8.2305    1.0722    2.9016 H       1  UNL1        0.0274
     25 H           8.2034    0.3845    1.2540 H       1  UNL1        0.0274
     26 H           7.0041    4.0428    0.7738 H       1  UNL1        0.0649
     27 H           9.5970    2.4238    1.4131 H       1  UNL1        0.1075
@<TRIPOS>BOND
     1     1     2    1
     2     2     3    1
     3     2     4    2
     4     4     5    1
     5     5     6    1
     6     6     7    1
     7     7     8    1
     8     7     9    2
     9     9    10    1
    10    10    11    2
    11     1    12    1
    12     1    13    1
    13     1    14    1
    14     3    15    1
    15     3    16    1
    16     3    17    1
    17     4    18    1
    18     5    19    1
    19     5    20    1
    20     6    21    1
    21     6    22    1
    22     8    23    1
    23     8    24    1
    24     8    25    1
    25     9    26    1
    26    10    27    1
