@<TRIPOS>MOLECULE
*****
 49 49 0 0 0
SMALL
GASTEIGER

@<TRIPOS>ATOM
      1 C           7.3768    0.6517   -0.6980 C.3     1  UNL1       -0.0632
      2 C           7.8591   -0.2819    0.4040 C.3     1  UNL1       -0.0319
      3 C           7.2857    0.0462    1.7835 C.3     1  UNL1        0.0551
      4 O           5.8728   -0.1058    1.7980 O.3     1  UNL1       -0.3234
      5 P           5.0404    0.3806    3.1167 P.3     1  UNL1        0.2296
      6 S           5.1794    2.3016    3.4521 S.2     1  UNL1        0.0032
      7 O           3.5259   -0.0219    2.6560 O.3     1  UNL1       -0.3234
      8 C           3.0943    0.3212    1.3460 C.3     1  UNL1        0.0551
      9 C           1.5873    0.1480    1.2011 C.3     1  UNL1       -0.0319
     10 C           0.7817    1.1556    2.0130 C.3     1  UNL1       -0.0632
     11 S           5.4995   -0.9366    4.7088 S.3     1  UNL1       -0.0646
     12 C           4.2715   -0.4305    5.9470 C.3     1  UNL1        0.0789
     13 C           4.2182   -1.2856    7.2269 C.2     1  UNL1        0.2261
     14 O           5.1155   -2.0802    7.5016 O.2     1  UNL1       -0.2747
     15 N           3.1119   -1.0410    8.0763 N.am    1  UNL1       -0.2980
     16 C           1.9526   -0.2551    7.6284 C.3     1  UNL1        0.0150
     17 C           1.3927    0.6397    8.7242 C.3     1  UNL1       -0.0371
     18 C           1.0524   -0.1599    9.9660 C.3     1  UNL1       -0.0500
     19 C           2.2627   -0.9690   10.4208 C.3     1  UNL1       -0.0345
     20 C           2.8326   -1.8611    9.2936 C.3     1  UNL1        0.0232
     21 C           3.9787   -2.6865    9.8958 C.3     1  UNL1       -0.0464
     22 H           7.8246    0.3605   -1.6553 H       1  UNL1        0.0230
     23 H           7.6700    1.6870   -0.4960 H       1  UNL1        0.0230
     24 H           6.2895    0.6136   -0.8119 H       1  UNL1        0.0230
     25 H           8.9528   -0.2266    0.4539 H       1  UNL1        0.0285
     26 H           7.5923   -1.3078    0.1284 H       1  UNL1        0.0285
     27 H           7.5601    1.0678    2.0597 H       1  UNL1        0.0564
     28 H           7.7171   -0.6392    2.5186 H       1  UNL1        0.0564
     29 H           3.5907   -0.3576    0.6395 H       1  UNL1        0.0564
     30 H           3.3878    1.3492    1.0978 H       1  UNL1        0.0564
     31 H           1.2946   -0.8592    1.5120 H       1  UNL1        0.0285
     32 H           1.3154    0.2614    0.1427 H       1  UNL1        0.0285
     33 H           0.9564    1.0341    3.0847 H       1  UNL1        0.0230
     34 H          -0.2923    1.0126    1.8270 H       1  UNL1        0.0230
     35 H           1.0342    2.1811    1.7319 H       1  UNL1        0.0230
     36 H           3.3181   -0.5005    5.4260 H       1  UNL1        0.0476
     37 H           4.4792    0.6013    6.2421 H       1  UNL1        0.0476
     38 H           1.1926   -0.9710    7.2862 H       1  UNL1        0.0465
     39 H           2.1880    0.3887    6.7848 H       1  UNL1        0.0465
     40 H           0.5011    1.1577    8.3576 H       1  UNL1        0.0280
     41 H           2.1345    1.4096    8.9754 H       1  UNL1        0.0280
     42 H           0.2128   -0.8349    9.7581 H       1  UNL1        0.0266
     43 H           0.7326    0.5151   10.7669 H       1  UNL1        0.0266
     44 H           1.9707   -1.5822   11.2833 H       1  UNL1        0.0283
     45 H           3.0402   -0.2772   10.7688 H       1  UNL1        0.0283
     46 H           2.0528   -2.5730    8.9925 H       1  UNL1        0.0498
     47 H           4.8435   -2.0618   10.1348 H       1  UNL1        0.0248
     48 H           4.2888   -3.4888    9.2193 H       1  UNL1        0.0248
     49 H           3.6500   -3.1758   10.8181 H       1  UNL1        0.0248
@<TRIPOS>BOND
     1     1     2    1
     2     2     3    1
     3     3     4    1
     4     4     5    1
     5     5     6    2
     6     5     7    1
     7     7     8    1
     8     8     9    1
     9     9    10    1
    10     5    11    1
    11    11    12    1
    12    12    13    1
    13    13    14    2
    14    13    15   am
    15    15    16    1
    16    16    17    1
    17    17    18    1
    18    18    19    1
    19    19    20    1
    20    15    20    1
    21    20    21    1
    22     1    22    1
    23     1    23    1
    24     1    24    1
    25     2    25    1
    26     2    26    1
    27     3    27    1
    28     3    28    1
    29     8    29    1
    30     8    30    1
    31     9    31    1
    32     9    32    1
    33    10    33    1
    34    10    34    1
    35    10    35    1
    36    12    36    1
    37    12    37    1
    38    16    38    1
    39    16    39    1
    40    17    40    1
    41    17    41    1
    42    18    42    1
    43    18    43    1
    44    19    44    1
    45    19    45    1
    46    20    46    1
    47    21    47    1
    48    21    48    1
    49    21    49    1
