@<TRIPOS>MOLECULE
*****
 23 24 0 0 0
SMALL
GASTEIGER

@<TRIPOS>ATOM
      1 C           1.2560   -0.0768   -0.6737 C.ar    1  UNL1       -0.0361
      2 C           0.4249   -1.2011   -0.6167 C.ar    1  UNL1       -0.0598
      3 C          -0.8265   -1.1120   -0.0162 C.ar    1  UNL1       -0.0616
      4 C          -1.2416    0.0971    0.5316 C.ar    1  UNL1       -0.0598
      5 C          -0.4000    1.2148    0.4917 C.ar    1  UNL1       -0.0361
      6 C           0.8660    1.1511   -0.1085 C.ar    1  UNL1        0.0693
      7 N           1.7429    2.2884   -0.1701 N.ar    1  UNL1       -0.1958
      8 N           2.6575    2.2205   -1.2010 N.ar    1  UNL1       -0.1698
      9 C           3.4560    3.2195   -1.3591 C.ar    1  UNL1        0.0703
     10 C           3.5301    4.4419   -0.5296 C.ar    1  UNL1        0.0641
     11 N           4.4840    5.3919   -0.8615 N.pl3   1  UNL1       -0.3558
     12 C           2.6556    4.4785    0.4857 C.ar    1  UNL1        0.1061
     13 BR          2.6123    5.9344    1.6781 Br      1  UNL1       -0.0427
     14 C           1.6716    3.3690    0.7216 C.ar    1  UNL1        0.2877
     15 O           0.8982    3.4552    1.6764 O.2     1  UNL1       -0.2646
     16 H           2.2334   -0.1826   -1.1387 H       1  UNL1        0.0639
     17 H           0.7602   -2.1445   -1.0392 H       1  UNL1        0.0618
     18 H          -1.4780   -1.9808    0.0236 H       1  UNL1        0.0618
     19 H          -2.2238    0.1801    0.9901 H       1  UNL1        0.0618
     20 H          -0.7837    2.1409    0.9095 H       1  UNL1        0.0639
     21 H           4.1715    3.1755   -2.1977 H       1  UNL1        0.0867
     22 H           4.6377    5.5001   -1.8617 H       1  UNL1        0.1424
     23 H           4.3299    6.2867   -0.3957 H       1  UNL1        0.1424
@<TRIPOS>BOND
     1     1     2   ar
     2     2     3   ar
     3     3     4   ar
     4     4     5   ar
     5     5     6   ar
     6     1     6   ar
     7     6     7    1
     8     7     8   ar
     9     8     9   ar
    10     9    10   ar
    11    10    11    1
    12    10    12   ar
    13    12    13    1
    14    12    14   ar
    15     7    14   ar
    16    14    15    2
    17     1    16    1
    18     2    17    1
    19     3    18    1
    20     4    19    1
    21     5    20    1
    22     9    21    1
    23    11    22    1
    24    11    23    1
