@<TRIPOS>MOLECULE
*****
 31 31 0 0 0
SMALL
GASTEIGER

@<TRIPOS>ATOM
      1 C           0.9482    0.2613    0.6688 C.3     1  UNL1       -0.0623
      2 C           2.3230    0.2273   -0.0087 C.3     1  UNL1       -0.0415
      3 C           3.0455    1.5312    0.3781 C.3     1  UNL1       -0.0623
      4 C           3.1907   -1.0306    0.3453 C.3     1  UNL1       -0.0126
      5 C           4.5509   -1.0257   -0.3947 C.3     1  UNL1       -0.0474
      6 C           4.3999   -1.2846   -1.8960 C.3     1  UNL1       -0.0500
      7 C           3.6852   -2.6092   -2.2000 C.3     1  UNL1       -0.0415
      8 C           4.6121   -3.8046   -1.9550 C.3     1  UNL1       -0.0623
      9 C           2.3757   -2.7277   -1.4055 C.3     1  UNL1       -0.0240
     10 C           2.5499   -2.4189    0.0869 C.3     1  UNL1        0.0585
     11 O           1.3287   -2.5851    0.7939 O.3     1  UNL1       -0.3915
     12 H           0.4566    1.2293    0.5056 H       1  UNL1        0.0232
     13 H           1.0313    0.1104    1.7507 H       1  UNL1        0.0232
     14 H           0.2706   -0.4878    0.2513 H       1  UNL1        0.0232
     15 H           2.1468    0.2558   -1.0900 H       1  UNL1        0.0299
     16 H           3.2489    1.5609    1.4551 H       1  UNL1        0.0232
     17 H           2.4331    2.4036    0.1286 H       1  UNL1        0.0232
     18 H           3.9910    1.6576   -0.1535 H       1  UNL1        0.0232
     19 H           3.3928   -0.9689    1.4247 H       1  UNL1        0.0328
     20 H           5.1949   -1.8008    0.0421 H       1  UNL1        0.0269
     21 H           5.0956   -0.0902   -0.2368 H       1  UNL1        0.0269
     22 H           5.3887   -1.2746   -2.3703 H       1  UNL1        0.0268
     23 H           3.8386   -0.4631   -2.3564 H       1  UNL1        0.0268
     24 H           3.4327   -2.6215   -3.2700 H       1  UNL1        0.0299
     25 H           4.9137   -3.8925   -0.9072 H       1  UNL1        0.0232
     26 H           5.5240   -3.7124   -2.5558 H       1  UNL1        0.0232
     27 H           4.1212   -4.7404   -2.2408 H       1  UNL1        0.0232
     28 H           1.9458   -3.7299   -1.5264 H       1  UNL1        0.0293
     29 H           1.6300   -2.0439   -1.8309 H       1  UNL1        0.0293
     30 H           3.2205   -3.1755    0.5120 H       1  UNL1        0.0596
     31 H           0.5978   -2.6118    0.1544 H       1  UNL1        0.2098
@<TRIPOS>BOND
     1     1     2    1
     2     2     3    1
     3     2     4    1
     4     4     5    1
     5     5     6    1
     6     6     7    1
     7     7     8    1
     8     7     9    1
     9     9    10    1
    10     4    10    1
    11    10    11    1
    12     1    12    1
    13     1    13    1
    14     1    14    1
    15     2    15    1
    16     3    16    1
    17     3    17    1
    18     3    18    1
    19     4    19    1
    20     5    20    1
    21     5    21    1
    22     6    22    1
    23     6    23    1
    24     7    24    1
    25     8    25    1
    26     8    26    1
    27     8    27    1
    28     9    28    1
    29     9    29    1
    30    10    30    1
    31    11    31    1
