@<TRIPOS>MOLECULE
*****
 36 40 0 0 0
SMALL
GASTEIGER

@<TRIPOS>ATOM
      1 C          -5.7472    0.3817    0.0419 C.ar    1  UNL1       -0.0612
      2 C          -5.0954    1.6009   -0.0490 C.ar    1  UNL1       -0.0611
      3 C          -3.6980    1.6420   -0.0802 C.ar    1  UNL1       -0.0534
      4 C          -2.8973    0.4701   -0.0252 C.ar    1  UNL1       -0.0102
      5 C          -3.5956   -0.7574    0.0450 C.ar    1  UNL1       -0.0173
      6 C          -4.9999   -0.7909    0.0866 C.ar    1  UNL1       -0.0540
      7 C          -2.8829   -1.9505    0.0742 C.ar    1  UNL1       -0.0534
      8 C          -1.4887   -1.9493    0.0345 C.ar    1  UNL1       -0.0529
      9 C          -0.7251   -0.7619   -0.0162 C.ar    1  UNL1       -0.0096
     10 C          -1.4520    0.4599   -0.0346 C.ar    1  UNL1       -0.0096
     11 C          -0.6993    1.6436   -0.0512 C.ar    1  UNL1       -0.0528
     12 C           0.6957    1.6447   -0.0345 C.ar    1  UNL1       -0.0528
     13 C           1.4504    0.4613   -0.0207 C.ar    1  UNL1       -0.0096
     14 C           2.8958    0.4730    0.0064 C.ar    1  UNL1       -0.0102
     15 C           3.6926    1.6469    0.0809 C.ar    1  UNL1       -0.0534
     16 C           5.0902    1.6067    0.1045 C.ar    1  UNL1       -0.0611
     17 C           5.7460    0.3878    0.0462 C.ar    1  UNL1       -0.0612
     18 C           5.0016   -0.7854   -0.0237 C.ar    1  UNL1       -0.0540
     19 C           3.5964   -0.7537   -0.0349 C.ar    1  UNL1       -0.0173
     20 C           2.8865   -1.9474   -0.0824 C.ar    1  UNL1       -0.0534
     21 C           1.4920   -1.9479   -0.0738 C.ar    1  UNL1       -0.0529
     22 C           0.7256   -0.7609   -0.0374 C.ar    1  UNL1       -0.0096
     23 H          -6.8322    0.3406    0.0742 H       1  UNL1        0.0618
     24 H          -5.6671    2.5243   -0.0945 H       1  UNL1        0.0618
     25 H          -3.2451    2.6258   -0.1542 H       1  UNL1        0.0624
     26 H          -5.5260   -1.7408    0.1544 H       1  UNL1        0.0624
     27 H          -3.4008   -2.9057    0.1265 H       1  UNL1        0.0624
     28 H          -1.0129   -2.9250    0.0626 H       1  UNL1        0.0624
     29 H          -1.1791    2.6178   -0.0620 H       1  UNL1        0.0624
     30 H           1.1744    2.6193   -0.0413 H       1  UNL1        0.0624
     31 H           3.2355    2.6300    0.1356 H       1  UNL1        0.0624
     32 H           5.6582    2.5312    0.1700 H       1  UNL1        0.0618
     33 H           6.8301    0.3471    0.0600 H       1  UNL1        0.0618
     34 H           5.5313   -1.7356   -0.0645 H       1  UNL1        0.0624
     35 H           3.4066   -2.9026   -0.1178 H       1  UNL1        0.0624
     36 H           1.0174   -2.9240   -0.1075 H       1  UNL1        0.0624
@<TRIPOS>BOND
     1     1     2   ar
     2     2     3   ar
     3     3     4   ar
     4     4     5   ar
     5     5     6   ar
     6     1     6   ar
     7     5     7   ar
     8     7     8   ar
     9     8     9   ar
    10     9    10   ar
    11     4    10   ar
    12    10    11   ar
    13    11    12   ar
    14    12    13   ar
    15    13    14   ar
    16    14    15   ar
    17    15    16   ar
    18    16    17   ar
    19    17    18   ar
    20    18    19   ar
    21    14    19   ar
    22    19    20   ar
    23    20    21   ar
    24    21    22   ar
    25    13    22   ar
    26     9    22   ar
    27     1    23    1
    28     2    24    1
    29     3    25    1
    30     6    26    1
    31     7    27    1
    32     8    28    1
    33    11    29    1
    34    12    30    1
    35    15    31    1
    36    16    32    1
    37    17    33    1
    38    18    34    1
    39    20    35    1
    40    21    36    1
