@<TRIPOS>MOLECULE
*****
 26 27 0 0 0
SMALL
GASTEIGER

@<TRIPOS>ATOM
      1 C           2.2212   -0.0489    0.2607 C.3     1  UNL1       -0.0056
      2 C           0.7570   -0.2047    0.1264 C.ar    1  UNL1        0.1139
      3 O           0.0686    0.9766    0.1175 O.2     1  UNL1       -0.4673
      4 C          -1.2439    0.6861   -0.0333 C.ar    1  UNL1        0.0928
      5 C          -1.4187   -0.6687   -0.1104 C.ar    1  UNL1       -0.0115
      6 C          -0.1199   -1.2700   -0.0124 C.ar    1  UNL1        0.0775
      7 C           0.0966   -2.7133   -0.0806 C.2     1  UNL1        0.2516
      8 O          -0.8752   -3.4394   -0.2792 O.2     1  UNL1       -0.2697
      9 N           1.3860   -3.1712    0.1284 N.am    1  UNL1       -0.2814
     10 C           1.7789   -4.5292    0.1029 C.ar    1  UNL1        0.0337
     11 C           0.9968   -5.5363   -0.4722 C.ar    1  UNL1       -0.0405
     12 C           1.3950   -6.8702   -0.4269 C.ar    1  UNL1       -0.0600
     13 C           2.5940   -7.2133    0.1878 C.ar    1  UNL1       -0.0616
     14 C           3.3984   -6.2220    0.7420 C.ar    1  UNL1       -0.0600
     15 C           3.0025   -4.8804    0.6859 C.ar    1  UNL1       -0.0405
     16 H           2.5070    1.0082    0.2784 H       1  UNL1        0.0308
     17 H           2.7362   -0.5190   -0.5821 H       1  UNL1        0.0308
     18 H           2.5740   -0.5016    1.1920 H       1  UNL1        0.0308
     19 H          -1.9168    1.5311   -0.0722 H       1  UNL1        0.1029
     20 H          -2.3592   -1.1904   -0.2343 H       1  UNL1        0.0657
     21 H           2.0762   -2.5150    0.4550 H       1  UNL1        0.1551
     22 H           0.0630   -5.3136   -0.9792 H       1  UNL1        0.0636
     23 H           0.7618   -7.6330   -0.8701 H       1  UNL1        0.0618
     24 H           2.8923   -8.2592    0.2395 H       1  UNL1        0.0618
     25 H           4.3313   -6.4958    1.2285 H       1  UNL1        0.0618
     26 H           3.6459   -4.1302    1.1370 H       1  UNL1        0.0636
@<TRIPOS>BOND
     1     1     2    1
     2     2     3   ar
     3     3     4   ar
     4     4     5   ar
     5     5     6   ar
     6     2     6   ar
     7     6     7    1
     8     7     8    2
     9     7     9   am
    10     9    10    1
    11    10    11   ar
    12    11    12   ar
    13    12    13   ar
    14    13    14   ar
    15    14    15   ar
    16    10    15   ar
    17     1    16    1
    18     1    17    1
    19     1    18    1
    20     4    19    1
    21     5    20    1
    22     9    21    1
    23    11    22    1
    24    12    23    1
    25    13    24    1
    26    14    25    1
    27    15    26    1
