@<TRIPOS>MOLECULE
*****
 35 37 0 0 0
SMALL
GASTEIGER

@<TRIPOS>ATOM
      1 O           1.1010    0.2531    0.1645 O.2     1  UNL1       -0.2465
      2 C           2.3230    0.1309    0.1326 C.ar    1  UNL1        0.3298
      3 N           3.0960    1.2675    0.1499 N.ar    1  UNL1       -0.3110
      4 C           4.4467    1.2422    0.1275 C.ar    1  UNL1        0.0288
      5 C           5.3300    2.4357    0.1250 C.3     1  UNL1       -0.0116
      6 C           6.6766    1.8111   -0.2741 C.3     1  UNL1       -0.0435
      7 C           6.5897    0.3157    0.0731 C.3     1  UNL1       -0.0206
      8 C           5.1228    0.1027    0.0962 C.ar    1  UNL1        0.0365
      9 C           4.4090   -1.1769    0.0589 C.ar    1  UNL1        0.2602
     10 O           5.0546   -2.2200    0.0121 O.2     1  UNL1       -0.2672
     11 N           3.0132   -1.0849    0.0643 N.ar    1  UNL1       -0.2577
     12 C           2.2503   -2.3408   -0.0540 C.3     1  UNL1        0.0422
     13 C           1.3863   -2.3677   -1.3284 C.3     1  UNL1       -0.0318
     14 C           0.6136   -3.6759   -1.4639 C.3     1  UNL1       -0.0512
     15 C          -0.2161   -3.9638   -0.2169 C.3     1  UNL1       -0.0529
     16 C           0.6520   -3.9806    1.0382 C.3     1  UNL1       -0.0512
     17 C           1.4298   -2.6737    1.2053 C.3     1  UNL1       -0.0318
     18 H           2.5865    2.1423    0.1724 H       1  UNL1        0.1701
     19 H           5.3792    2.8837    1.1227 H       1  UNL1        0.0328
     20 H           5.0188    3.1953   -0.5982 H       1  UNL1        0.0328
     21 H           7.5209    2.3014    0.2216 H       1  UNL1        0.0272
     22 H           6.8265    1.9263   -1.3564 H       1  UNL1        0.0272
     23 H           7.0233    0.1141    1.0579 H       1  UNL1        0.0315
     24 H           7.0997   -0.2937   -0.6779 H       1  UNL1        0.0315
     25 H           2.9690   -3.1632   -0.1646 H       1  UNL1        0.0530
     26 H           2.0239   -2.2239   -2.2088 H       1  UNL1        0.0285
     27 H           0.6649   -1.5443   -1.3341 H       1  UNL1        0.0285
     28 H           1.3155   -4.5000   -1.6375 H       1  UNL1        0.0266
     29 H          -0.0423   -3.6233   -2.3401 H       1  UNL1        0.0266
     30 H          -0.7250   -4.9271   -0.3288 H       1  UNL1        0.0265
     31 H          -0.9964   -3.1994   -0.1113 H       1  UNL1        0.0265
     32 H           1.3551   -4.8212    0.9827 H       1  UNL1        0.0266
     33 H           0.0222   -4.1509    1.9190 H       1  UNL1        0.0266
     34 H           2.0984   -2.7585    2.0714 H       1  UNL1        0.0285
     35 H           0.7213   -1.8717    1.4395 H       1  UNL1        0.0285
@<TRIPOS>BOND
     1     1     2    2
     2     2     3   ar
     3     3     4   ar
     4     4     5    1
     5     5     6    1
     6     6     7    1
     7     7     8    1
     8     4     8   ar
     9     8     9   ar
    10     9    10    2
    11     9    11   ar
    12     2    11   ar
    13    11    12    1
    14    12    13    1
    15    13    14    1
    16    14    15    1
    17    15    16    1
    18    16    17    1
    19    12    17    1
    20     3    18    1
    21     5    19    1
    22     5    20    1
    23     6    21    1
    24     6    22    1
    25     7    23    1
    26     7    24    1
    27    12    25    1
    28    13    26    1
    29    13    27    1
    30    14    28    1
    31    14    29    1
    32    15    30    1
    33    15    31    1
    34    16    32    1
    35    16    33    1
    36    17    34    1
    37    17    35    1
