@<TRIPOS>MOLECULE
*****
 24 23 0 0 0
SMALL
GASTEIGER

@<TRIPOS>ATOM
      1 C           0.9566    0.1051   -0.0409 C.3     1  UNL1       -0.0653
      2 C           2.4769    0.1021   -0.0240 C.3     1  UNL1       -0.0559
      3 C           3.0166   -0.2655    1.3573 C.3     1  UNL1       -0.0533
      4 C           4.5458   -0.2719    1.3776 C.3     1  UNL1       -0.0530
      5 C           5.0760   -0.6414    2.7634 C.3     1  UNL1       -0.0510
      6 C           6.6024   -0.6547    2.7931 C.3     1  UNL1       -0.0297
      7 C           7.1299   -1.0209    4.1740 C.3     1  UNL1        0.0442
      8 O           8.5508   -1.0172    4.1643 O.3     1  UNL1       -0.3950
      9 H           0.5884    0.3704   -1.0366 H       1  UNL1        0.0230
     10 H           0.5583    0.8323    0.6740 H       1  UNL1        0.0230
     11 H           0.5599   -0.8822    0.2165 H       1  UNL1        0.0230
     12 H           2.8425    1.0933   -0.3159 H       1  UNL1        0.0263
     13 H           2.8439   -0.6123   -0.7701 H       1  UNL1        0.0263
     14 H           2.6418   -1.2547    1.6464 H       1  UNL1        0.0265
     15 H           2.6427    0.4507    2.0997 H       1  UNL1        0.0265
     16 H           4.9224    0.7175    1.0910 H       1  UNL1        0.0265
     17 H           4.9208   -0.9884    0.6367 H       1  UNL1        0.0265
     18 H           4.6956   -1.6295    3.0503 H       1  UNL1        0.0266
     19 H           4.7007    0.0760    3.5034 H       1  UNL1        0.0266
     20 H           6.9978    0.3261    2.5018 H       1  UNL1        0.0287
     21 H           6.9895   -1.3665    2.0533 H       1  UNL1        0.0287
     22 H           6.7872   -2.0142    4.4815 H       1  UNL1        0.0557
     23 H           6.7958   -0.2961    4.9230 H       1  UNL1        0.0557
     24 H           8.8406   -1.6762    3.5105 H       1  UNL1        0.2094
@<TRIPOS>BOND
     1     1     2    1
     2     2     3    1
     3     3     4    1
     4     4     5    1
     5     5     6    1
     6     6     7    1
     7     7     8    1
     8     1     9    1
     9     1    10    1
    10     1    11    1
    11     2    12    1
    12     2    13    1
    13     3    14    1
    14     3    15    1
    15     4    16    1
    16     4    17    1
    17     5    18    1
    18     5    19    1
    19     6    20    1
    20     6    21    1
    21     7    22    1
    22     7    23    1
    23     8    24    1
