@<TRIPOS>MOLECULE
*****
 33 34 0 0 0
SMALL
GASTEIGER

@<TRIPOS>ATOM
      1 C           1.2718    0.6243    0.7902 C.3     1  UNL1       -0.0636
      2 C           2.3857    0.0287   -0.0657 C.3     1  UNL1       -0.0296
      3 C           2.9068    0.9326   -1.2229 C.3     1  UNL1        0.1440
      4 C           3.4851    2.1994   -0.5860 C.2     1  UNL1        0.2395
      5 O           4.3781    2.1849    0.2612 O.2     1  UNL1       -0.2739
      6 N           2.9703    3.4004   -0.9860 N.am    1  UNL1       -0.2387
      7 C           1.9081    3.5966   -1.8086 C.2     1  UNL1        0.3122
      8 O           1.4552    4.7192   -2.0175 O.2     1  UNL1       -0.2520
      9 N           1.3596    2.4897   -2.3745 N.am    1  UNL1       -0.2387
     10 C           1.7348    1.1908   -2.1719 C.2     1  UNL1        0.2395
     11 O           1.1194    0.2929   -2.7482 O.2     1  UNL1       -0.2739
     12 C           4.0572    0.2742   -2.0404 C.2     1  UNL1       -0.0499
     13 C           4.5515   -0.9562   -1.7776 C.2     1  UNL1       -0.0833
     14 C           5.7142   -1.5916   -2.4836 C.3     1  UNL1       -0.0345
     15 C           6.5031   -0.6126   -3.3440 C.3     1  UNL1       -0.0493
     16 C           5.5588    0.2921   -4.1220 C.3     1  UNL1       -0.0490
     17 C           4.6585    1.0950   -3.1747 C.3     1  UNL1       -0.0303
     18 H           1.0680   -0.0435    1.6348 H       1  UNL1        0.0230
     19 H           0.3437    0.7296    0.2216 H       1  UNL1        0.0230
     20 H           1.5463    1.5996    1.2007 H       1  UNL1        0.0230
     21 H           2.0098   -0.9201   -0.4716 H       1  UNL1        0.0280
     22 H           3.2143   -0.2197    0.6109 H       1  UNL1        0.0280
     23 H           3.3552    4.2240   -0.5435 H       1  UNL1        0.1591
     24 H           0.5710    2.6425   -2.9870 H       1  UNL1        0.1591
     25 H           4.1328   -1.5781   -0.9912 H       1  UNL1        0.0572
     26 H           5.3354   -2.4140   -3.1014 H       1  UNL1        0.0307
     27 H           6.3869   -2.0343   -1.7390 H       1  UNL1        0.0307
     28 H           7.1549   -1.1661   -4.0292 H       1  UNL1        0.0268
     29 H           7.1553   -0.0015   -2.7071 H       1  UNL1        0.0268
     30 H           4.9388   -0.3178   -4.7916 H       1  UNL1        0.0268
     31 H           6.1333    0.9767   -4.7560 H       1  UNL1        0.0268
     32 H           3.8672    1.5526   -3.7783 H       1  UNL1        0.0310
     33 H           5.2464    1.9131   -2.7409 H       1  UNL1        0.0310
@<TRIPOS>BOND
     1     1     2    1
     2     2     3    1
     3     3     4    1
     4     4     5    2
     5     4     6   am
     6     6     7   am
     7     7     8    2
     8     7     9   am
     9     9    10   am
    10     3    10    1
    11    10    11    2
    12     3    12    1
    13    12    13    2
    14    13    14    1
    15    14    15    1
    16    15    16    1
    17    16    17    1
    18    12    17    1
    19     1    18    1
    20     1    19    1
    21     1    20    1
    22     2    21    1
    23     2    22    1
    24     6    23    1
    25     9    24    1
    26    13    25    1
    27    14    26    1
    28    14    27    1
    29    15    28    1
    30    15    29    1
    31    16    30    1
    32    16    31    1
    33    17    32    1
    34    17    33    1
